<?xml version="1.0" encoding="UTF-8"?>

<!-- generated on 2024-10-08 15:12:58.366021 by randomTrips.py v1_20_0+0002-343658e7c64
<configuration>
    <net-file value="output.net.xml"/>
    <route-file value="output.rou.xml"/>
    <trip-attributes value="type='car'"/>
    <end value="100.0"/>
</configuration>
-->

<!-- generated on 2024-10-08 15:12:58 by Eclipse SUMO duarouter Version 1.20.0
<configuration xmlns:xsi="http://www.w3.org/2001/XMLSchema-instance" xsi:noNamespaceSchemaLocation="http://sumo.dlr.de/xsd/duarouterConfiguration.xsd">

    <input>
        <net-file value="output.net.xml"/>
        <route-files value="trips.trips.xml"/>
    </input>

    <output>
        <output-file value="output.rou.xml"/>
        <alternatives-output value="NUL"/>
    </output>

    <time>
        <begin value="0.0"/>
        <end value="100.0"/>
    </time>

    <report>
        <no-warnings value="true"/>
        <ignore-errors value="true"/>
        <no-step-log value="true"/>
    </report>

</configuration>
-->

<routes xmlns:xsi="http://www.w3.org/2001/XMLSchema-instance" xsi:noNamespaceSchemaLocation="http://sumo.dlr.de/xsd/routes_file.xsd">
    
    <vType id="car" accel="0.8" decel="4.5" sigma="0" length="5" minGap="2" maxSpeed="70"/>
    
    <vehicle id="0" type="car" depart="0.00">
        <route edges="213135202#5 213135652#3 213135685#9 418953176 420684138#1 213135718#0 -314361101#9 -314361101#8 -314361101#7 -314361101#6 -314361101#5 -314361101#4 -314361101#3 -314361101#2 -314361101#1 1160123731#0 1160123731#1 694965020 -1288248181 310919322#3 310919322#4 310919322#5 310919322#6 310919322#7 310919322#8 311690841#0 311690841#1 311690841#2 311690841#3 311690841#4 1270806707#0 1270806707#1 1270806707#2 1270806707#3 1270806707#4 1270806707#5 1270806707#6 1270806707#7 1270806707#8 1270806707#9 -158326986#14 -158326986#13 -158326986#12 -158326986#11 -158326986#10 -158326986#9 -158326986#8 -158326986#7 -158326986#6 -158326986#5 -158326986#4 -158326986#3 -158326986#2 -158326986#1 -158326986#0 -1160125864#4 -1160125864#3 -1160125864#2 -1160125864#1 -1160125864#0 -213514701#10 -213514701#9 -213514701#8 -213514701#7 -213514701#6 -213514701#5 -213514701#4 -213514701#3 -213514701#2 -213514701#1 -213514701#0 -824843022#8 -824843022#7 -824843022#6 -824843022#5 -824843022#4 -824843022#3 -824843022#2 -824843022#1 -824843022#0 354538252#0 354538252#1 354538252#2 -419157838#0 -419157839#1 -213514710#0 213514899#1 213514899#2 213514771#0 213514771#1 -119923375 -213514926#1 420767494 -119729807#2 -119729807#1 -119729807#0 -1189289899 1189289898#1 824863612#2 1189290092#0 -1189290092#0"/>
    </vehicle>
    <vehicle id="1" type="car" depart="1.00">
        <route edges="-31427343#8 -31427343#7 -31427343#6 -31427343#5 -31427343#4 31427347#5 31427347#6 711023972#2 -847119344 774954299#1 774954299#2 313514734#1 313514734#2 313514734#3 313514734#4 711570549#0 711570549#1 711570549#2 711570549#3 711570549#4 711570549#5 711570550 362161865#3 362161865#4 362161865#5 362161865#6 362161865#7 1121196549#0 1121196549#1 234286744#0 234286744#1 234286744#2 234286744#3 234286744#4 759785847#0 759785847#1 759785847#2 759785847#3 759785847#4 759785847#5 759785847#6 759785842#3 759785842#4 759785842#5 656764177 1178128132#7 213514930#0 213514930#1 213514930#2 213514930#3 213514930#4 213514930#5 -213514883#0 363171338#5 363171338#6 363171338#7 363171338#8 363171338#9 363171338#10 363171338#11 363171338#12 363171338#13 213514843#0 -213514846#1"/>
    </vehicle>
    <vehicle id="2" type="car" depart="2.00">
        <route edges="234286744#0 234286744#1 234286744#2 234286744#3 234286744#4 759785847#0 759785847#1 759785847#2 759785847#3 759785847#4 759785847#5 759785847#6 759785842#3 759785842#4 759785842#5 759785842#6 759785842#7 759785842#8 759785842#9 759785842#10 843452856#0 843452856#1 843452857#0 843452857#1 310922593 -213514824#2 -213514829#0 -119710741#23 -119710741#22 -119710741#21 -119710741#20 -119710741#19 -119710741#18 -119710741#17 -119710741#16 -119710741#15 -119710741#14 -119710741#13 -119710741#12 -119710741#11 -119710741#10 -119710741#9 -119710741#8 -119710741#7 -119922955#7 -119922955#6 -119922955#5 -119922955#4 -119922955#3 1293613855#0 -213514899#1 213514710#0 419157839#1 419157838#0 -354538252#2 -354538252#1 -354538252#0 824843022#0 824843022#1 824843022#2 824843022#3 824843022#4 824843022#5 824843022#6 824843022#7 824843022#8 213514701#0"/>
    </vehicle>
    <vehicle id="3" type="car" depart="3.00">
        <route edges="419196405#2 310919331#4 310919331#5 213135181#0 818432974#1 818432974#2 818432974#3 818432974#4 818432974#5 818432974#6 818432974#7 1160123731#0 1160123731#1 694965020 -1288248181 310919322#3 310919322#4 310919322#5 310919322#6 310919322#7 310919322#8 311690841#0 311690841#1 311690841#2 311690841#3 311690841#4 1270806707#0 1270806707#1 1270806707#2 1270806707#3 1270806707#4 1270806707#5 1270806707#6 1270806707#7 1270806707#8 1270806707#9 -158326986#14 -158326986#13 -158326986#12 -158326986#11 -158326986#10 -158326986#9 -158326986#8 -158326986#7 -158326986#6 -158326986#5 -158326986#4 -158326986#3 -158326986#2 -158326986#1 -158326986#0 -1160125864#4 -1160125864#3 -1160125864#2 -1160125864#1 -1160125864#0 -213514701#10 -213514701#9 -213514701#8 -213514701#7 -213514701#6 -213514701#5 -213514701#4 -213514701#3 -213514701#2 -213514701#1 -213514701#0 -824843022#8 -824843022#7 -824843022#6 -824843022#5 -824843022#4 -824843022#3 -824843022#2 -824843022#1 -824843022#0 354538252#0 354538252#1 354538252#2 -419157838#0 -419157839#1 -213514710#0 213514899#1 -1293613855#0 119922955#3 119922955#4 119922955#5 119922955#6 119922955#7 119710741#7 119710741#8 119710741#9 119710741#10 119710741#11 119710741#12 119710741#13 119710741#14 119710741#15 119710741#16 119710741#17 119710741#18 119710741#19 119710741#20 119710741#21 -354532004#3 839555248 310919302#7 310919302#8 310919302#9 310919302#10 310919302#11 843452862#0 843452862#1 1178128132#0 1178128132#1 1178128132#2 1178128132#3 1178128132#4 1178128132#5 1178128132#6 1178128132#7 1178128132#8 1178128132#9 1178128132#10 718369276#0 718369276#1 718369276#2 718369276#3 718446020 234286750#4 234286750#5 234286750#6 234286750#7 234286750#8 234286750#9 234286750#10 234286750#11 234286750#12 234286750#13 234286750#14 234286750#15 234286750#16 234286750#17 234286750#18 234286750#19 711570658 1178168899#0 1178168899#1 313513166#0 313513166#1 313513166#2 313513166#3 313513166#4 313513166#5 315567259#0 315567259#1 315567259#2 315567259#3 315567259#4 563587941#0 563587941#1 563587941#2 563587941#3 563587941#4 563587941#5 563587941#6 673625384 673625385#0 673625385#1 673625386#0 673625386#1 1210961164 1225573747 1229106419 313513924#0 313513924#1 673625364 673625368#0 673625368#1 -129532516#1"/>
    </vehicle>
    <vehicle id="4" type="car" depart="4.00">
        <route edges="-694965029#4 -694965029#3 -694965029#2 -694965029#1 -694965029#0 -212725684#5 -212725684#4 -212725684#3 -212725684#2 -212725684#1 -212725684#0 708208470#5 1225372230 1225372231#0 1225372231#1 1224762944 665835970#0 665835970#1 665835970#2 1288243222 1288243221#0 1288243221#1 1288243221#2 419196405#0 1288248179#0 1288248179#1 818432974#0 818432974#1 818432974#2 818432974#3 818432974#4 818432974#5 818432974#6 818432974#7 1160123731#0 1160123731#1 694965020 -1288248181 310919322#3 310919322#4 310919322#5 310919322#6 310919322#7 310919322#8 311690841#0 311690841#1 311690841#2 311690841#3 311690841#4 1270806707#0 1270806707#1 1270806707#2 1270806707#3 1270806707#4 1270806707#5 1270806707#6 1270806707#7 1270806707#8 1270806707#9 -158326986#14 -158326986#13 -158326986#12 -158326986#11 -158326986#10 -158326986#9 -158326986#8 -158326986#7 -158326986#6 -158326986#5 -158326986#4 -158326986#3 -158326986#2 -158326986#1 -158326986#0 -1160125864#4 -1160125864#3 -1160125864#2 -1160125864#1 -1160125864#0 -213514701#10 -213514701#9 -213514701#8 -213514701#7 -213514701#6 -213514701#5 -213514701#4 -213514701#3 -213514701#2 -213514701#1 -213514701#0 -824843022#8 -824843022#7 -824843022#6 -824843022#5 -824843022#4 -824843022#3 -824843022#2 -824843022#1 -824843022#0 354538252#0 354538252#1 354538252#2 -419157838#0 -419157839#1 -213514710#0 213514899#1 -1293613855#0 119922955#3 119922955#4 119922955#5 119922955#6 119922955#7 119710741#7 119710741#8 119710741#9 119710741#10 119710741#11 -119710741#11 -119710741#10"/>
    </vehicle>
    <vehicle id="5" type="car" depart="5.00">
        <route edges="-213514738#1 -213514738#0 213514920#2 213514920#3 311690841#30 311690841#31 702376527#0 1124099555 310919302#1 119710741#0 119710741#1 119710741#2 119710741#3 119710741#4 119710741#5 119710741#6 119710741#7 119710741#8 119710741#9 119710741#10 119710741#11 119710741#12 119710741#13 119710741#14 119710741#15 119710741#16 119710741#17 119710741#18 119710741#19 119710741#20 119710741#21 -354532004#3 839555248 310919302#7 310919302#8 310919302#9 310919302#10 310919302#11 843452862#0 843452862#1 1178128132#0 1178128132#1 1178128132#2 1178128132#3 1178128132#4 1178128132#5 1178128132#6 1178128132#7 1178128132#8 1178128132#9 1178128132#10 718369276#0 718369276#1 718369276#2 718369276#3 718446020 234286750#4 234286750#5 234286750#6 234286750#7 234286750#8 234286750#9 234286750#10 234286750#11 234286750#12 234286750#13 234286750#14 234286750#15 234286750#16 234286750#17 234286750#18 234286750#19 711570658 1178168899#0 1178168899#1 313513166#0 313513166#1 313513166#2 313513166#3 313513166#4 313513166#5 315567259#0 315567259#1 315567259#2 315567259#3 315567259#4 563587941#0 563587941#1 563587941#2 563587941#3 563587941#4 563587941#5 563587941#6 673625384 673625385#0 673625385#1 673625386#0 673625386#1 1210961164 1225573747 1229106419 313513924#0 1207802474 313513923#1 1225573748"/>
    </vehicle>
    <vehicle id="6" type="car" depart="6.00">
        <route edges="-1189113460 1189113460 1189113459 1270806707#8 1270806707#9 -158326986#14 -158326986#13 -158326986#12 -158326986#11 -158326986#10 -158326986#9 -158326986#8 -158326986#7 -158326986#6 213495504#0 -213495504#0"/>
    </vehicle>
    <vehicle id="7" type="car" depart="7.00">
        <route edges="213135584#1 213135584#2 390028533 -51761205#14 -213135483#2 -213135483#1 416131627#11 416131627#12 416131627#13 416131627#14 416131627#15 416131627#16 416131627#17 416131627#18 -1288248183 1203853288#1 -1189455395 310919322#2 310919322#3 310919322#4 310919322#5 310919322#6 310919322#7 310919322#8 311690841#0 311690841#1 311690841#2 311690841#3 311690841#4 1270806707#0 1270806707#1 1270806707#2 1270806707#3 1270806707#4 1270806707#5 1270806707#6 1270806707#7 1270806707#8 1270806707#9 -158326986#14 -158326986#13 -158326986#12 -158326986#11 -158326986#10 -158326986#9 -158326986#8 -158326986#7 -158326986#6 -158326986#5 -158326986#4 -158326986#3 -158326986#2 -158326986#1 -158326986#0 -1160125864#4 -1160125864#3 -1160125864#2 -1160125864#1 -1160125864#0 -213514701#10 -213514701#9 -213514701#8 -213514701#7 -213514701#6 -213514701#5 -213514701#4 -213514701#3 -213514701#2 -213514701#1 -213514701#0 -824843022#8 -824843022#7 -824843022#6 -824843022#5 -824843022#4 -824843022#3 -824843022#2 -824843022#1 -824843022#0 354538252#0 354538252#1 354538252#2 -419157838#0 -419157839#1 -213514710#0 213514899#1 -1293613855#0 119922955#3 119922955#4 119922955#5 119922955#6 119922955#7 119710741#7 119710741#8 119710741#9 119710741#10 119710741#11 119710741#12 119710741#13 119710741#14 119710741#15 119710741#16 119710741#17 119710741#18 119710741#19 119710741#20 119710741#21 -354532004#3 839555248 310919302#7 310919302#8 310919302#9 310919302#10 310919302#11 843452862#0 843452862#1 1178128132#0 1178128132#1 1178128132#2 1178128132#3 1178128132#4 1178128132#5 1178128132#6 1178128132#7 1178128132#8 1178128132#9 1178128132#10 718369276#0 718369276#1 718369276#2 718369276#3 718446020 234286750#4 234286750#5 234286750#6 234286750#7 234286750#8 234286750#9 234286750#10 234286750#11 234286750#12 234286750#13 234286750#14 234286750#15 234286750#16 234286750#17 234286750#18 234286750#19 711570658 1178168899#0 1178168899#1 313513166#0 313513166#1 313513166#2 313513166#3 313513166#4 313513166#5 315567259#0 315567259#1 315567259#2 315567259#3 315567259#4 563587941#0 563587941#1 563587941#2 563587941#3 563587941#4 563587941#5 52015024#0 52015024#1 52015024#2 52015024#3 52015024#4 129519439#0 129519439#1 129519439#2"/>
    </vehicle>
    <vehicle id="8" type="car" depart="8.00">
        <route edges="-213514767#1 213514767#1 119710741#14 119710741#15 119710741#16 119710741#17 119710741#18 119710741#19 119710741#20 119710741#21 -354532004#3 839555248 310919302#7 310919302#8 310919302#9 310919302#10 310919302#11 843452862#0 843452862#1 1178128132#0 1178128132#1 1178128132#2 1178128132#3 1178128132#4 1178128132#5 1178128132#6 1178128132#7 1178128132#8 1178128132#9 1178128132#10 718369276#0 718369276#1 718369276#2 718369276#3 718446020 234286750#4 234286750#5 234286750#6 234286750#7 234286750#8 234286750#9 234286750#10 234286750#11 234286750#12 234286750#13 234286750#14 234286750#15 234286750#16 1272670479 362161865#5 354532758#0 152774548#1 711570551#1 711570551#2 152969394#0 152969394#1"/>
    </vehicle>
    <vehicle id="9" type="car" depart="9.00">
        <route edges="354531203 129786591#1 129786591#2 129786591#3 1189299998#1 1201820427 313513923#0 -1207802474 313513924#1 673625364 673625368#0 673625368#1 673625368#2 673625368#3 673625367#0 -233394604#2 -233394604#1 -233394604#0 563795196#0 563795196#1 563795196#2 563795196#3 563795196#4 563795196#5 563795196#6 563795196#7 563795196#8 563795196#9 563795196#10 563795196#11 563795196#12 563795196#13 563795196#14 563795196#15 563795196#16 1202728446#0 1202728446#1 1202728446#2 1202728447 1202728444#0 1202728444#1 1188018344#0 1188018344#1 1188018344#2 1188018344#3 1188018344#4 1188018344#5 1188018344#6 563587941#0 563587941#1 563863442 563587939#2 563587939#3 313513163 313514734#0 313514734#1 313514734#2 313514734#3 -152969817#2 1133435177 -1133435177"/>
    </vehicle>
    <vehicle id="11" type="car" depart="11.00">
        <route edges="-354536379#2 -354536379#1 835235371#1 710687435 313513166#1 313513166#2 563861744 313514734#3 313514734#4 711570549#0 711570549#1 711570549#2 711570549#3 711570549#4 711570549#5 711570550 362161865#3 362161865#4 362161865#5 362161865#6 362161865#7 1121196549#0 1121196549#1 234286744#0 234286744#1 234286744#2 234286744#3 234286744#4 759785847#0 759785847#1 759785847#2 759785847#3 759785847#4 759785847#5 759785847#6 759785842#3 759785842#4 759785842#5 759785842#6 759785842#7 759785842#8 759785842#9 759785842#10 843452856#0 843452856#1 843452857#0 843452857#1 310922593 -213514824#2 -213514829#0 -119710741#23 -119710741#22 -119710741#21 -119710741#20 -119710741#19 -119710741#18 -119710741#17 -119710741#16 -119710741#15 -119710741#14 -119710741#13 -119710741#12 -119710741#11 -119710741#10 -119710741#9 -119710741#8 -119710741#7 -119922955#7 -119922955#6 -119922955#5 -119922955#4 -119922955#3 1293613855#0 -213514899#1 213514710#0 419157839#1 419157838#0 -354538252#2 -354538252#1 -354538252#0 824843022#0 824843022#1 824843022#2 824843022#3 824843022#4 824843022#5 824843022#6 824843022#7 824843022#8 213514701#0 213514701#1 213514701#2 213514701#3 213514701#4 213514701#5 213514701#6 213514701#7 213514701#8 213514701#9 213514701#10 1160125864#0 1160125864#1 1160125864#2 1160125864#3 1160125864#4 158326986#0 158326986#1 158326986#2 158326986#3 158326986#4 158326986#5 158326986#6 158326986#7 158326986#8 158326986#9 158326986#10 158326986#11 158326986#12 158326986#13 158326986#14 -1270806707#9 -1270806707#8 -1270806707#7 -1270806707#6 -1270806707#5 -1270806707#4 -1270806707#3 -1270806707#2 -1270806707#1 -158331244#4 -158331244#3 -158331244#2 158331245#2 311690841#1 1240071817 1203856052#11 1203856052#12 310904466#0 310904466#1 310904466#2 310904466#3 310904466#4 310904466#5 310904466#6 310904466#7 1203853288#0 1288248183 -416131627#18 -416131627#17 -416131627#16 -416131627#15 -416131627#14 -416131627#13 -416131627#12 213135494#1 -213135398#1"/>
    </vehicle>
    <vehicle id="12" type="car" depart="12.00">
        <route edges="750000111#1 673625386#1 1210961164 1225573747 1229106419 313513924#0 313513924#1 673625364 673625368#0 673625368#1 673625368#2 673625368#3 673625367#0 -233394604#2 -233394604#1 -233394604#0 563795196#0 563795196#1 563795196#2 563795196#3 563795196#4 563795196#5 563795196#6 563795196#7 563795196#8 563795196#9 563795196#10 563795196#11 563795196#12 563795196#13 563795196#14 563795196#15 563795196#16 1202728446#0 1202728446#1 1202728446#2 1202728447 1202728444#0 1202728444#1 1188018344#0 1188018344#1 1188018344#2 1188018344#3 1188018344#4 1188018344#5 1188018344#6 563587941#0 563587941#1 563863442 563587939#2 563587939#3 313513163 313514734#0 313514734#1 313514734#2 313514734#3 313514734#4 711570549#0 711570549#1 711570549#2 711570549#3 711570549#4 711570549#5 711570550 362161865#3 362161865#4 362161865#5 362161865#6 362161865#7 1121196549#0 1121196549#1 234286744#0 234286744#1 234286744#2 234286744#3 234286744#4 759785847#0 759785847#1 759785847#2 759785847#3 759785847#4 759785847#5 759785847#6 759785842#3 759785842#4 759785842#5 656764177 1178128132#7 213514930#0 213514930#1 213514930#2 213514930#3 213514930#4 213514930#5 -213514883#0 -363171338#4 -363171338#3 -363171338#2 -363171338#1"/>
    </vehicle>
    <vehicle id="13" type="car" depart="13.00">
        <route edges="-129522795#5 129522795#5 563795196#2 563795196#3 563795196#4 563795196#5 563795196#6 563795196#7 563795196#8 563795196#9 563795196#10 563795196#11 563795196#12 563795196#13 563795196#14 563795196#15 563795196#16 1202728446#0 1202728446#1 1202728446#2 1202728447 1202728444#0 1202728444#1 1188018344#0 1188018344#1 1188018344#2 1188018344#3 1188018344#4 1188018344#5 1188018344#6 563587941#0 563587941#1 563863442 563587939#2 563587939#3 313513163 313514734#0 313514734#1 313514734#2 313514734#3 313514734#4 -152772016#9 -152772016#8 -152772016#7 -152772016#6 -152772016#5 -152772016#4 -152772016#3 -152772016#2"/>
    </vehicle>
    <vehicle id="14" type="car" depart="14.00">
        <route edges="354536462#0 -354534896 -354532758#2 -354532758#1 -354532758#0 362161865#6 362161865#7 1121196549#0 1121196549#1 234286744#0 234286744#1 234286744#2 234286744#3 234286744#4 759785847#0 759785847#1 759785847#2 759785847#3 759785847#4 759785847#5 759785847#6 759785842#3 759785842#4 759785842#5 759785842#6 759785842#7 759785842#8 759785842#9 759785842#10 843452856#0 843452856#1 843452857#0 843452857#1 310922593 -213514824#2 -213514829#0 -119710741#23 -119710741#22 -119710741#21 -119710741#20 -119710741#19 -119710741#18 -119710741#17 -119710741#16 -119710741#15 -119710741#14 -119710741#13 -119710741#12 -119710741#11 -119710741#10 -119710741#9 -119710741#8 -119710741#7 -119922955#7 -119922955#6 -119922955#5 -119922955#4 -119922955#3 1293613855#0 -213514899#1 213514710#0 419157839#1 419157838#0 -354538252#2 -354538252#1 -354538252#0 824843022#0 824843022#1 824843022#2 824843022#3 824843022#4 824843022#5 824843022#6 824843022#7 824843022#8 213514701#0 213514701#1 213514701#2 213514701#3 213514701#4 213514701#5 213514701#6 213514701#7 213514701#8 213514701#9 213514701#10 1160125864#0 1160125864#1 1160125864#2 1160125864#3 1160125864#4 158326986#0 158326986#1 158326986#2 158326986#3 158326986#4 -158331235#3 158331252#0"/>
    </vehicle>
    <vehicle id="16" type="car" depart="16.00">
        <route edges="1274011217 970837497#2 970837496#0 970837496#1 970837496#2 -354533300 -152773095#5 -152773095#4 -152773095#3 354536480#1 354537946#0 354537946#1 354537946#2 -152773039#1 152969601#0 152969601#1 823307594#1"/>
    </vehicle>
    <vehicle id="17" type="car" depart="17.00">
        <route edges="-418948319#1 418948319#1 418948319#2 418948319#3 418948319#4 418948319#5 418948319#6 418948319#7 418948319#8 -694965012#2 -694965012#1 -694965012#0 -369985674 E9 E11 E13 -213135155#4 -213135155#3 -213135155#2 213135196#0 -213135168#2 -213135168#1 -213135168#0 -51761231#0 694965025#0 818432974#0 818432974#1 818432974#2 818432974#3 818432974#4 818432974#5 818432974#6 818432974#7 1160123731#0 1160123731#1 694965020 -1288248181 310919322#3 310919322#4 310919322#5 310919322#6 310919322#7 310919322#8 311690841#0 311690841#1 311690841#2 311690841#3 311690841#4 1270806707#0 1270806707#1 1270806707#2 1270806707#3 1270806707#4 1270806707#5 1270806707#6 1270806707#7 1270806707#8 1270806707#9 -158326986#14 -158326986#13 -158326986#12 -158326986#11 -158326986#10 -158326986#9 -158326986#8 -158326986#7 -158326986#6 -158326986#5 -158326986#4 -158326986#3 -158326986#2 -158326986#1 -158326986#0 -1160125864#4 -1160125864#3 -1160125864#2 -1160125864#1 -1160125864#0 -213514701#10 -213514701#9 -213514701#8 -213514701#7 -213514701#6 -213514701#5 -213514701#4 -213514701#3 -213514701#2 -213514701#1 -213514701#0 -824843022#8 -824843022#7 -824843022#6 -824843022#5 -824843022#4 -824843022#3 -824843022#2 -824843022#1 -824843022#0 354538252#0 354538252#1 354538252#2 -419157838#0 -419157839#1 -213514710#0 213514899#1 -1293613855#0 119922955#3 119922955#4 119922955#5 119922955#6 119922955#7 119710741#7 119710741#8 119710741#9 119710741#10 119710741#11 119710741#12 119710741#13 119710741#14 119710741#15 119710741#16 119710741#17 119710741#18 119710741#19 119710741#20 119710741#21 -354532004#3 839555248 310919302#7 310919302#8 310919302#9 310919302#10 310919302#11 843452862#0 843452862#1 1178128132#0 1178128132#1 1178128132#2 1178128132#3 1178128132#4 1178128132#5 1178128132#6 1178128132#7 1178128132#8 1178128132#9 1178128132#10 718369276#0 718369276#1 718369276#2 718369276#3 718446020 234286750#4 234286750#5 234286750#6 234286750#7 234286750#8 234286750#9 234286750#10 234286750#11 234286750#12 234286750#13 234286750#14 234286750#15 234286750#16 234286750#17 234286750#18 234286750#19 711570658 1178168899#0 1178168899#1 313513166#0 313513166#1 313513166#2 313513166#3 313513166#4 313513166#5 315567259#0 315567259#1 315567259#2 315567259#3 315567259#4 563587941#0 563587941#1 563587941#2 563587941#3 563587941#4 563587941#5 52015024#0 52015024#1 52015024#2 52015024#3 52015024#4 52015024#5 52015024#6 -129524236#1 -129524236#0 129524236#0"/>
    </vehicle>
    <vehicle id="18" type="car" depart="18.00">
        <route edges="354534379#2 -1189128624#1 -1189128624#0 -354534379#0 -1189128625 -1270806707#8 -1270806707#7 -1270806707#6 -1270806707#5 -1270806707#4 -1270806707#3 -1270806707#2 -1270806707#1 -158331244#4 -158331244#3 -158331244#2 158331245#2 311690841#1 1240071817 1203856052#11 1203856052#12 310904466#0 310904466#1 310904466#2 310904466#3 310904466#4 310904466#5 310904466#6 310904466#7 1203853288#0 1203853288#1 -1189455395 310919322#2 1288248181 -694965020 -1160123731#1 -1160123731#0 -818432974#7 -818432974#6 -818432974#5 -818432974#4 -818432974#3 -818432974#2 -818432974#1 213135181#1 -213135164#2 -213135694 213135196#3"/>
    </vehicle>
    <vehicle id="19" type="car" depart="19.00">
        <route edges="363171338#1 363171338#2 363171338#3 363171338#4 213514883#0 -213514930#5 -213514930#4 -213514930#3 -213514930#2 -213514930#1 -213514930#0 1178128132#8 1178128132#9 1178128132#10 718369276#0 718369276#1 718369276#2 718369276#3 718446020 234286750#4 234286750#5 234286750#6 234286750#7 234286750#8 234286750#9 234286750#10 234286750#11 234286750#12 234286750#13 234286750#14 234286750#15 234286750#16 1272670479 362161865#5 354532758#0 354532758#1 354532758#2 354532758#3 152774016#3 152774016#4 152774016#5 152774016#6 152774016#7 152774016#8 -152774234#1 -152774011#1 152774012#0 152774012#1"/>
    </vehicle>
    <vehicle id="20" type="car" depart="20.00">
        <route edges="213514813#0 213514686#8 213514686#9 363171338#3 363171338#4 213514883#0 -213514930#5 -213514930#4 -213514930#3 -213514930#2 -213514930#1 -213514930#0 1178128132#8 1178128132#9 1178128132#10 718369276#0 718369276#1 718369276#2 718369276#3 718446020 234286750#4 234286750#5 234286750#6 234286750#7 234286750#8 1201357386#0 -1201357386#0"/>
    </vehicle>
    <vehicle id="21" type="car" depart="21.00">
        <route edges="-213514822#1 213514822#1 -213514701#2 -213514701#1 -213514701#0 -824843022#8 -824843022#7 -824843022#6 -824843022#5 -824843022#4 -824843022#3 -824843022#2 -824843022#1 -824843022#0 354538252#0 354538252#1 354538252#2 -419157838#0 -419157839#1 -213514710#0 213514899#1 -1293613855#0 119922955#3 119922955#4 119922955#5 119922955#6 119922955#7 119710741#7 119710741#8 119710741#9 119710741#10 119710741#11 119710741#12 119710741#13 119710741#14 119710741#15 119710741#16 119710741#17 119710741#18 119710741#19 119710741#20 119710741#21 -354532004#3 839555248 310919302#7 310919302#8 310919302#9 310919302#10 310919302#11 843452862#0 843452862#1 1178128132#0 1178128132#1 1178128132#2 1178128132#3 1178128132#4 1178128132#5 1178128132#6 1178128132#7 1178128132#8 1178128132#9 1178128132#10 718369276#0 718369276#1 718369276#2 718369276#3 718446020 234286750#4 234286750#5 234286750#6 234286750#7 234286750#8 234286750#9 234286750#10 234286750#11 234286750#12 234286750#13 234286750#14 234286750#15 234286750#16 1272670479 362161865#5 362161865#6 362161865#7 1121196549#0 1121196549#1 -354531299#6 -354531299#5"/>
    </vehicle>
    <vehicle id="22" type="car" depart="22.00">
        <route edges="-129519422#0 -418941631#3 418941631#3 129519422#0 129519422#1 129519437#0 129519437#1 129519437#2 -129519439#1 -129519439#0 52015024#5 52015024#6 52015024#7 563795196#10 563795196#11 563795196#12 563795196#13 563795196#14 563795196#15 563795196#16 1202728446#0 1202728446#1 1202728446#2 1202728447 1202728444#0 1202728444#1 1188018344#0 1188018344#1 1188018344#2 1188018344#3 1188018344#4 1188018344#5 1188018344#6 563587941#0 563587941#1 563863442 563587939#2 563587939#3 313513163 313514734#0 313514734#1 313514734#2 313514734#3 313514734#4 711570549#0 711570549#1 711570549#2 711570549#3 711570549#4 711570549#5 711570550 362161865#3 362161865#4 362161865#5 362161865#6 362161865#7 1121196549#0 1121196549#1 234286744#0 234286744#1 234286744#2 234286744#3 234286744#4 759785847#0 759785847#1 759785847#2 759785847#3 759785847#4 759785847#5 759785847#6 759785842#3 759785842#4 759785842#5 656764177 1178128132#7 213514930#0 213514930#1 213514930#2 -213514930#2 -213514930#1 -213514930#0"/>
    </vehicle>
    <vehicle id="23" type="car" depart="23.00">
        <route edges="-1299952886 -391132877#6 -391132877#5 -391132877#4 -391132877#3 -391132877#2 -391132877#1 -391132877#0 -694965012#3 -694965012#2 -694965012#1 -694965012#0 -369985674 E9 E11 E13 -213135155#4 -213135155#3 -213135279 -51761270#1 -51761270#0 694965016 824830125 824830124 -212725684#5 -212725684#4 -212725684#3 -212725684#2 -212725684#1 -212725684#0 708208470#5 1225372230 1225372231#0 1225372231#1 1224762944 665835970#0 1288239522 1288239526 1288239524 1288239527 31608203#0 31608203#1 442738026 665835668#0 665835668#1 665835668#2 31608208 31608236#0 31608236#1 31608236#2 31608236#3 -1081341432 -31611107#3 -31611107#2"/>
    </vehicle>
    <vehicle id="24" type="car" depart="24.00">
        <route edges="213135185#1 213135185#2 213135196#2 213135694 213135164#2 -213135181#1 818432974#1 818432974#2 818432974#3 818432974#4 818432974#5 818432974#6 818432974#7 1160123731#0 1160123731#1 694965020 -1288248181 310919322#3 310919322#4 310919322#5 310919322#6 310919322#7 310919322#8 311690841#0 311690841#1 311690841#2 311690841#3 311690841#4 1270806707#0 1270806707#1 1270806707#2 1270806707#3 1270806707#4 1270806707#5 1270806707#6 1270806707#7 1270806707#8 1270806707#9 -158326986#14 -158326986#13 -158326986#12 -158326986#11 -158326986#10 -158326986#9 -158326986#8 -158326986#7 -158326986#6 -158326986#5 -158326986#4 -158326986#3 -158326986#2 -158326986#1 -158326986#0 -1160125864#4 -1160125864#3 -1160125864#2 -1160125864#1 -1160125864#0 -213514701#10 -213514701#9 -213514701#8 -213514701#7 -213514701#6 -213514701#5 -213514701#4 -213514701#3 -213514701#2 -213514701#1 -213514701#0 -824843022#8 -824843022#7 -824843022#6 -824843022#5 -824843022#4 -824843022#3 -824843022#2 -824843022#1 -824843022#0 354538252#0 354538252#1 354538252#2 -419157838#0"/>
    </vehicle>
    <vehicle id="25" type="car" depart="25.00">
        <route edges="-416136614 158331219#2 158331219#3 158331225#1 1203856052#9 1240071818 311690841#3 311690841#4 1270806707#0 1270806707#1 1270806707#2 1270806707#3 1270806707#4 1270806707#5 1270806707#6 1270806707#7 1270806707#8 1270806707#9 -158326986#14 -158326986#13 -158326986#12 -158326986#11 -158326986#10 -158326986#9 -158326986#8 -158326986#7 -158326986#6 -158326986#5 -158326986#4 -158326986#3 -158326986#2 -158326986#1 -158326986#0 -1160125864#4 -1160125864#3 -1160125864#2 -1160125864#1 -1160125864#0 -213514701#10 -213514701#9 -213514701#8 -213514701#7 -213514701#6 -213514701#5 -213514701#4 -213514701#3 -213514701#2 -213514701#1 -213514701#0 -824843022#8 -824843022#7 -824843022#6 -824843022#5 -824843022#4 -824843022#3 -824843022#2 -824843022#1 -824843022#0 354538252#0 354538252#1 354538252#2 -419157838#0 -419157839#1 -213514710#0 213514899#1 -1293613855#0 119922955#3 119922955#4 119922955#5 119922955#6 119922955#7 119710741#7 119710741#8 119710741#9 119710741#10 119710741#11 119710741#12 119710741#13 119710741#14 119710741#15 119710741#16 119710741#17 119710741#18 119710741#19 119710741#20 119710741#21 -354532004#3 839555248 310919302#7 1240072215 843452864#3 843452864#4 843452864#5 843452864#6 843452864#7 843452864#8 843452864#9 843452864#10 843452864#11 -213514809#1 -213514809#0 -213514855#0 -213514703#1"/>
    </vehicle>
    <vehicle id="26" type="car" depart="26.00">
        <route edges="-281253930 -129393875#1 -129393875#0 563795196#15 563795196#16 1202728446#0 1202728446#1 1202728446#2 1202728447 1202728444#0 1202728444#1 1188018344#0 1188018344#1 1188018344#2 1188018344#3 1188018344#4 1188018344#5 1188018344#6 563587941#0 563587941#1 563863442 563587939#2 563587939#3 313513163 313514734#0 313514734#1 313514734#2 313514734#3 313514734#4 711570549#0 711570549#1 711570549#2 711570549#3 711570549#4 711570549#5 711570550 362161865#3 362161865#4 362161865#5 362161865#6 362161865#7 1121196549#0 1121196549#1 234286744#0 234286744#1 234286744#2 234286744#3 234286744#4 759785847#0 759785847#1 759785847#2 759785847#3 759785847#4 759785847#5 759785847#6 759785842#3 759785842#4 759785842#5 759785842#6 759785842#7 759785842#8 759785842#9 759785842#10 843452856#0 843452856#1 843452857#0 843452857#1 310922593 -213514824#2 -213514829#0 -119710741#23 -119710741#22 -119710741#21 -119710741#20 -119710741#19 -119710741#18 -119710741#17 -119710741#16 -119710741#15 -119710741#14 -119710741#13 -119710741#12 -119710741#11 -119710741#10 -119710741#9 -119710741#8 -119710741#7 -119922955#7 -119922955#6 -119922955#5 -119922955#4 -119922955#3 1293613855#0 -213514899#1 213514710#0 419157839#1 419157838#0 -354538252#2 -354538252#1 -354538252#0 824843022#0 824843022#1 824843022#2 824843022#3 824843022#4 824843022#5 824843022#6 824843022#7 824843022#8 213514701#0 213514701#1 213514701#2 213514701#3 213514701#4 213514701#5 213514701#6 213514701#7 213514701#8 213514701#9 213514701#10 1160125864#0 1160125864#1 1160125864#2 1160125864#3 1160125864#4 158326986#0 158326986#1 158326986#2 158326986#3 158326986#4 158326986#5 158326986#6 158326986#7 158326986#8 158326986#9 158326986#10 158326986#11 158326986#12 158326986#13 158326986#14 -1270806707#9 -1270806707#8 -1270806707#7 -1270806707#6 -1270806707#5 -1270806707#4 -1270806707#3 -1270806707#2 -1270806707#1 -158331244#4 -158331244#3 -158331244#2 158331245#2 311690841#1 1240071817 1203856052#11 1203856052#12 310904466#0 310904466#1 310904466#2 310904466#3 310904466#4 310904466#5 310904466#6 310904466#7 1203853288#0 1288248183 -416131627#18 -416131627#17 -416131627#16 -416131627#15 -416131627#14 -416131627#13 -416131627#12 -416131627#11 -416131627#10 -416131627#9 -416131627#8 -416131627#7 -416131627#6 -416131627#5 -416131627#4 -416131627#3 -416131627#2 -416131627#1 -416131627#0 1288248182 1225372232 1288243227#0 1288243227#1 1288239529 -1288239524 1288239525 665835970#2 1288243222 1288243221#0 1288243221#1 -419196424#1 -419196424#0 -51761231#3 213135155#0 213135155#1 213135155#2 213135155#3 213135155#4 -E13 -E11 -E9 369985674 694965012#0 694965012#1"/>
    </vehicle>
    <vehicle id="27" type="car" depart="27.00">
        <route edges="213135494#2 -213135494#2 -213135494#1 -416131627#11 -416131627#10 -416131627#9 -416131627#8 -416131627#7 -416131627#6 -416131627#5 -416131627#4 -416131627#3 -416131627#2 -416131627#1 -416131627#0 1288248182 1225372232 1288243227#0 1288243227#1 1288239529 -1288239524 1288239525 665835970#2 1288243222 1288243221#0 1288243221#1 -419196424#1 -419196424#0 51761231#4 694965016 824830125 824830124 -212725684#5 -212725684#4 -212725684#3 -212725684#2 -212725684#1 -212725684#0 212725684#0 212725684#1"/>
    </vehicle>
    <vehicle id="28" type="car" depart="28.00">
        <route edges="-213135614#3 -213135614#2 158331244#0 158331244#1 158331244#2 158331244#3 158331244#4 1270806707#1 1270806707#2 1270806707#3 1270806707#4 1270806707#5 1270806707#6 1270806707#7 1270806707#8 1270806707#9 -158326986#14 -158326986#13 -158326986#12 -158326986#11 -158326986#10 -158326986#9 -158326986#8 -158326986#7 -158326986#6 -158326986#5 -158326986#4 -158326986#3 -158326986#2 -158326986#1 -158326986#0 656546334#0 656546334#1 656546334#2 656546334#3 -271680162#3 -271680162#2 -271680162#1 -271680162#0 213532196#0 271680347#2"/>
    </vehicle>
    <vehicle id="29" type="car" depart="29.00">
        <route edges="-213135420#7 213135420#7 213135420#8 213135420#9 1272695487#0 1272695487#1 1238504010#0 1238504010#1 -419196407 -314361101#3 -314361101#2 -314361101#1 1160123731#0 1160123731#1 694965020 -1288248181 310919322#3 310919322#4 310919322#5 310919322#6 310919322#7 310919322#8 311690841#0 311690841#1 311690841#2 311690841#3 311690841#4 1270806707#0 1270806707#1 1270806707#2 1270806707#3 1270806707#4 1270806707#5 1270806707#6 1270806707#7 1270806707#8 1270806707#9 -158326986#14 -158326986#13 -158326986#12 -158326986#11 -158326986#10 -158326986#9 -158326986#8 -158326986#7 -158326986#6 -158326986#5 -158326986#4 -158326986#3 -158326986#2 -158326986#1 -158326986#0 -1160125864#4 -1160125864#3 -1160125864#2 -1160125864#1 -1160125864#0 -213514701#10 -213514701#9 -213514701#8 -213514701#7 -213514701#6 -213514701#5 -213514701#4 -213514701#3 -213514701#2 -213514701#1 -213514701#0 -824843022#8 -824843022#7 -824843022#6 -824843022#5 -824843022#4 -824843022#3 -824843022#2 -824843022#1 -824843022#0 354538252#0 354538252#1 354538252#2 -419157838#0 -419157839#1 -213514710#0 213514899#1 -1293613855#0 119922955#3 119922955#4 119922955#5 119922955#6 119922955#7 119710741#7 119710741#8 119710741#9 119710741#10 119710741#11 119710741#12 119710741#13 119710741#14 119710741#15 119710741#16 119710741#17 119710741#18 119710741#19 119710741#20 119710741#21 -354532004#3 839555248 310919302#7 310919302#8 310919302#9 310919302#10 310919302#11 843452862#0 843452862#1 1178128132#0 1178128132#1 1178128132#2 1178128132#3 1178128132#4 1178128132#5 1178128132#6 1178128132#7 1178128132#8 1178128132#9 1178128132#10 718369276#0 718369276#1 718369276#2 718369276#3 718446020 234286750#4 234286750#5 234286750#6 234286750#7 234286750#8 234286750#9 234286750#10 234286750#11 234286750#12 234286750#13 234286750#14 234286750#15 234286750#16 234286750#17 234286750#18 234286750#19 711570658 1178168899#0 1178168899#1 313513166#0 313513166#1 313513166#2 313513166#3 313513166#4 313513166#5 315567259#0 315567259#1 315567259#2 315567259#3 315567259#4 563587941#0 563587941#1 563587941#2 563587941#3 563587941#4 563587941#5 563587941#6 673625384 673625385#0 673625385#1 673625386#0 673625386#1 1210961164 1225573747 1229106419 313513924#0 129524238 130524607#9 129522784 -456965369"/>
    </vehicle>
    <vehicle id="30" type="car" depart="30.00">
        <route edges="843452864#14 843452864#15 843452864#16 843452864#17 310919306 310919324#0 310919324#1 310919324#2 310919324#3 1238014769#0 354531765#0 354531765#1 354531765#2 354531765#3 -821278906 354534388 -213495495#4 -213495495#3 -213495495#2 -213495495#1 -213495495#0 213495544#3 702376526#6 702376526#7 702376526#8 702376526#9 702376526#10 702376526#11 702376526#12 702376526#13 702376526#14 702376526#15 702376526#16 702376526#17 702376526#18 1203856052#0 1203856052#1 1203856052#2 1203856052#3 1203856052#4 1203856052#5 1203856052#6 1203856052#7 1203856052#8 1203856052#9 1203856052#10 1203856052#11 1203856052#12 310904466#0 310904466#1 310904466#2 310904466#3 310904466#4 310904466#5 310904466#6 310904466#7 1203853288#0 1203853288#1 -1189455395 310919322#2 1288248181 -694965020 -1160123731#1 -1160123731#0 314361101#1 314361101#2 314361101#3 314361101#4 314361101#5 314361101#6 314361101#7 314361101#8 314361101#9 694971497#0 213135685#6 -213135413#1 -213135413#0 213135736#1"/>
    </vehicle>
    <vehicle id="31" type="car" depart="31.00">
        <route edges="129519432#0 129519432#1 129519432#2 129519432#3 129519432#4 -354532444 -129519428#1 129519422#1 129519437#0 129519437#1 129519437#2 -129519439#1 -129519439#0 52015024#5 52015024#6 52015024#7 563795196#10 563795196#11 563795196#12 563795196#13 563795196#14 563795196#15 563795196#16 1202728446#0 1202728446#1 1202728446#2 1202728447 1202728444#0 1202728444#1 1188018344#0 1188018344#1 1188018344#2 1188018344#3 1188018344#4 1188018344#5 1188018344#6 563587941#0 563587941#1 563863442 563587939#2 563587939#3 313513163 313514734#0 313514734#1 313514734#2 313514734#3 313514734#4 711570549#0 711570549#1 711570549#2 711570549#3 711570549#4 711570549#5 711570550 362161865#3 362161865#4 362161865#5 362161865#6 362161865#7 1121196549#0 1121196549#1 234286744#0 234286744#1 234286744#2 234286744#3 234286744#4 759785847#0 759785847#1 759785847#2 759785847#3 759785847#4 759785847#5 759785847#6 759785842#3 759785842#4 759785842#5 759785842#6 759785842#7 759785842#8 759785842#9 759785842#10 843452856#0 843452856#1 843452857#0 843452857#1 310922593 310922596#0 310922596#1 310922596#2 310922596#3 310922596#4 310922596#5 310922596#6 310922596#7 -656507061 310922592#2 310922592#3 213514775#0 213514775#1"/>
    </vehicle>
    <vehicle id="32" type="car" depart="32.00">
        <route edges="354535945 152962045#2 152774016#2 -354532758#3 -354532758#2 -354532758#1 -354532758#0 362161865#6 362161865#7 1121196549#0 1121196549#1 234286744#0 234286744#1 234286744#2 234286744#3 234286744#4 759785847#0 759785847#1 759785847#2 759785847#3 759785847#4 759785847#5 759785847#6 759785842#3 759785842#4 759785842#5 759785842#6 759785842#7 759785842#8 759785842#9 759785842#10 843452856#0 843452856#1 843452857#0 843452857#1 310922593 -213514824#2 -213514829#0 -119710741#23 -119710741#22 -119710741#21 -119710741#20 -119710741#19 -119710741#18 -119710741#17 -119710741#16 -119710741#15 -119710741#14 -119710741#13 -119710741#12 -119710741#11 -119710741#10 -119710741#9 -119710741#8 -119710741#7 -119922955#7 -119922955#6 -119922955#5 -119922955#4 -119922955#3 1293613855#0 -213514899#1 213514710#0 419157839#1 419157838#0 -354538252#2 -354538252#1 -354538252#0 824843022#0 824843022#1 824843022#2 824843022#3 824843022#4 824843022#5 824843022#6 824843022#7 824843022#8 213514701#0 213514701#1 213514701#2 213514701#3 213514701#4 213514701#5 213514701#6 213514701#7 213514701#8 213514701#9 213514701#10 1160125864#0 1160125864#1 1160125864#2 1160125864#3 1160125864#4 158326986#0 158326986#1 158326986#2 158326986#3 158326986#4 158326986#5 158326986#6 158326986#7 158326986#8 158326986#9 158326986#10 158326986#11 158326986#12 158326986#13 158326986#14 -1270806707#9 -1270806707#8 -1270806707#7 -1270806707#6 -1270806707#5 -1270806707#4 -1270806707#3 -1270806707#2 -1270806707#1 -158331244#4 -158331244#3 -158331244#2 158331245#2 311690841#1 1240071817 1203856052#11 1203856052#12 310904466#0 310904466#1 310904466#2 310904466#3 310904466#4 310904466#5 310904466#6 310904466#7 1203853288#0 1288248183 -416131627#18 -416131627#17 -416131627#16 -416131627#15 -416131627#14 -416131627#13 -416131627#12 -416131627#11 -416131627#10 -416131627#9 -416131627#8 -416131627#7 -416131627#6 -416131627#5 -416131627#4 -416131627#3 -416131627#2 -416131627#1 -416131627#0 1288248182 1225372232 1288243227#0 1288243227#1 1288243227#2 31608203#0 31608203#1 442738026 665835668#0 562832889 31608202#0"/>
    </vehicle>
    <vehicle id="33" type="car" depart="33.00">
        <route edges="-213514829#1 -213514829#0 -119710741#23 -119710741#22"/>
    </vehicle>
    <vehicle id="34" type="car" depart="34.00">
        <route edges="-354533835 -158331250#0 158331235#2 158331235#3 158326986#5 158326986#6 158326986#7 158326986#8 158326986#9 158326986#10 158326986#11 158326986#12 158326986#13 158326986#14 -1270806707#9 -1270806707#8 -1270806707#7 -1270806707#6 -1270806707#5 -1270806707#4 -1270806707#3 -1270806707#2 -1270806707#1 -158331244#4 -158331244#3 -158331244#2 158331245#2 311690841#1 1240071817 1203856052#11 1203856052#12 310904466#0 310904466#1 310904466#2 310904466#3 310904466#4 310904466#5 310904466#6 310904466#7 1203853288#0 1203853288#1 -1189455395 310919322#2 1288248181 -694965020 -1160123731#1 -1160123731#0 314361101#1 314361101#2 314361101#3 314361101#4 -314361101#4"/>
    </vehicle>
    <vehicle id="35" type="car" depart="35.00">
        <route edges="-213514672#2 -213514672#1 -213514672#0 119710740#1 119710740#2 119710740#3 119710740#4 310919302#5 310919302#6 310919302#7 1240072215 843452864#3 843452864#4 843452864#5 843452864#6 843452864#7 843452864#8 843452864#9 843452864#10 843452864#11 843452864#12 843452864#13 843452864#14 843452864#15 843452864#16 843452864#17 310919306 310919324#0 310919324#1 310919324#2 310919324#3 1238014769#0 354531765#0 354531765#1 354531765#2 354531765#3 -821278906 354534388 -213495495#4 -213495495#3 -213495495#2 -213495495#1 -213495495#0 213495544#3 702376526#6 702376526#7 702376526#8 702376526#9 702376526#10 702376526#11 702376526#12 702376526#13 702376526#14 702376526#15"/>
    </vehicle>
    <vehicle id="36" type="car" depart="36.00">
        <route edges="416131627#4 416131627#5 416131627#6 416131627#7 416131627#8 416131627#9 416131627#10 416131627#11 416131627#12 416131627#13 416131627#14 416131627#15 416131627#16 416131627#17 416131627#18 -1288248183 1203853288#1 -1189455395 310919322#2 310919322#3 310919322#4 310919322#5 310919322#6 310919322#7 310919322#8 311690841#0 311690841#1 311690841#2 311690841#3 311690841#4 1270806707#0 1270806707#1 1270806707#2 1270806707#3 1270806707#4 1270806707#5 1270806707#6 1270806707#7 1270806707#8 1270806707#9 -158326986#14 -158326986#13 -158326986#12 -158326986#11 -158326986#10 -158326986#9 -158326986#8 -158326986#7 -158326986#6 -158326986#5 -158326986#4 -158326986#3 -158326986#2 -158326986#1 -158326986#0 -1160125864#4 -1160125864#3 -1160125864#2 -1160125864#1 -1160125864#0 -213514701#10 -213514701#9 -213514701#8 -213514701#7 -213514701#6 -213514701#5 -213514701#4 -213514701#3 -213514701#2 -213514701#1 -213514701#0 -824843022#8 -824843022#7 -824843022#6 -824843022#5 -824843022#4 -824843022#3 -824843022#2 -824843022#1 -824843022#0 354538252#0 354538252#1 354538252#2 -419157838#0 -419157839#1 -213514710#0 213514899#1 -1293613855#0 119922955#3 119922955#4 119922955#5 119922955#6 119922955#7 119710741#7 119710741#8 119710741#9 119710741#10 119710741#11 119710741#12 119710741#13 119710741#14 119710741#15 119710741#16 119710741#17 119710741#18 119710741#19 119710741#20 119710741#21 -354532004#3 839555248 310919302#7 310919302#8 310919302#9 310919302#10 310919302#11 843452862#0 843452862#1 1178128132#0 1178128132#1 1178128132#2 1178128132#3 1178128132#4 1178128132#5 1178128132#6 1178128132#7 1178128132#8 1178128132#9 1178128132#10 718369276#0 718369276#1 718369276#2 718369276#3 718446020 234286750#4 234286750#5 234286750#6 234286750#7 234286750#8 234286750#9 234286750#10 234286750#11 234286750#12 234286750#13 234286750#14 234286750#15 234286750#16 1272670479 362161865#5 354532758#0 354532758#1 -152774865#4 354536462#0 -354534896"/>
    </vehicle>
    <vehicle id="37" type="car" depart="37.00">
        <route edges="213135696#1 -213135591#0 -694965012#1 -694965012#0"/>
    </vehicle>
    <vehicle id="38" type="car" depart="38.00">
        <route edges="52014976#4 52014976#5 52014976#6 52014976#7 -158326986#3 -158326986#2 -158326986#1 -158326986#0 -1160125864#4 -1160125864#3 -1160125864#2 -1160125864#1 -1160125864#0 -213514701#10 -213514701#9 -213514701#8 -213514701#7 -213514701#6 -213514701#5 -213514701#4 -213514701#3 -213514701#2 -213514701#1 -213514701#0 -824843022#8 -824843022#7 -824843022#6 -824843022#5 -824843022#4 -824843022#3 -824843022#2 -824843022#1 -824843022#0 354538252#0 354538252#1 354538252#2 -419157838#0 -419157839#1 -213514710#0 213514899#1 -1293613855#0 119922955#3 119922955#4 119922955#5 119922955#6 119922955#7 119710741#7 119710741#8 119710741#9 119710741#10 119710741#11 119710741#12 119710741#13 119710741#14 119710741#15 119710741#16 119710741#17 119710741#18 119710741#19 119710741#20 119710741#21 -354532004#3 839555248 310919302#7 310919302#8 310919302#9 310919302#10 310919302#11 843452862#0 843452862#1 1178128132#0 1178128132#1 1178128132#2 1178128132#3 1178128132#4 1178128132#5 1178128132#6 1178128132#7 1178128132#8 1178128132#9 1178128132#10 718369276#0 718369276#1 718369276#2 718369276#3 718446020 234286750#4 234286750#5 234286750#6 234286750#7 234286750#8 234286750#9 234286750#10 234286750#11 234286750#12 234286750#13 234286750#14 234286750#15 234286750#16 234286750#17 234286750#18 234286750#19 711570658 1178168899#0 1178168899#1 313513166#0 313513166#1 313513166#2 313513166#3 313513166#4 313513166#5 315567259#0 315567259#1 315567259#2 315567259#3 315567259#4 563587941#0 563587941#1 563863442 563587939#2 711570089 605484361 -782395489#1 -782395489#0 776997494#0 776997494#1 776997494#2 -31426638#5 -31426638#4 -31426638#3 -1188576815#0 1188576815#0"/>
    </vehicle>
    <vehicle id="39" type="car" depart="39.00">
        <route edges="-281245827#2 281245827#2 -281245825#2 -281245825#1 -281245825#0 1188020783 1084005676 -710687436#0 313513166#2 563861744 313514734#3 313514734#4 711570549#0 711570549#1 711570549#2 711570549#3 711570549#4 711570549#5 711570550 362161865#3 362161865#4 362161865#5 362161865#6 362161865#7 1121196549#0 1121196549#1 -354531299#6 -354531299#5 -354531299#4 -354531299#3 -215516625#4 -215516625#3 -215516664#1 -215516664#0 -419156263 -215516680#5"/>
    </vehicle>
    <vehicle id="40" type="car" depart="40.00">
        <route edges="129522775#0 129519425#3 129519425#4 418941631#1 418941631#2 418941631#3 129519422#0 129519422#1 129519437#0 129519437#1 129519437#2 -129519439#1 -129519439#0 52015024#5 52015024#6 52015024#7 563795196#10 563795196#11 563795196#12 563795196#13 563795196#14 563795196#15 563795196#16 1202728446#0 1202728446#1 1202728446#2 1202728447 1202728444#0 1202728444#1 1188018344#0 1188018344#1 1188018344#2 1188018344#3 1188018344#4 1188018344#5 1188018344#6 563587941#0 563587941#1 563863442 563587939#2 711570089 605484361 -782395489#1 -782395489#0 31427343#0 -31427343#0"/>
    </vehicle>
    <vehicle id="41" type="car" depart="41.00">
        <route edges="152773041#0 152773041#1 354537946#0 354537946#1 354533817 152773591 152773042#0 152773042#1 -152969484#1 -711570552#1 -711570552#0 711570553 711570549#3 711570549#4 711570549#5 711570550 362161865#3 714277223 234286750#18 234286750#19 711570658 1178168899#0 1178168899#1 313513166#0 313513166#1 313513166#2 313513166#3 313513166#4 313513166#5 315567259#0 315567259#1 315567259#2 315567259#3 315567259#4 563587941#0 563587941#1 563587941#2 563587941#3 563587941#4 563587941#5 52015024#0 52015024#1 52015024#2 52015024#3 52015024#4 52015024#5 52015024#6 52015024#7 563795196#10 -1274876737 -354535922#1 -354535922#0 1189609092#0 421040748"/>
    </vehicle>
    <vehicle id="42" type="car" depart="42.00">
        <route edges="-442037378#1 -442037378#0 -825783133 825783134#0 416131627#16 416131627#17 416131627#18 -1288248183 1203853288#1 -1189455395 310919322#2 310919322#3 310919322#4 310919322#5 310919322#6 310919322#7 310919322#8 311690841#0 311690841#1 311690841#2 311690841#3 311690841#4 1270806707#0 1270806707#1 1270806707#2 1270806707#3 1270806707#4 1270806707#5 1270806707#6 1270806707#7 1270806707#8 1270806707#9 -158326986#14 -158326986#13 -158326986#12 -158326986#11 -158326986#10 -158326986#9 -158326986#8 -158326986#7 -158326986#6 -158326986#5 -158326986#4 -158326986#3 -158326986#2 -158326986#1 -158326986#0 -1160125864#4 -1160125864#3 -1160125864#2 -1160125864#1 -1160125864#0 -213514701#10 -213514701#9 -213514701#8 -213514701#7 -213514701#6 -213514701#5 -213514701#4 -213514701#3 -213514701#2 -213514701#1 -213514701#0 -824843022#8 -824843022#7 -824843022#6 -824843022#5 -824843022#4 -824843022#3 -824843022#2 -824843022#1 -824843022#0 354538252#0 354538252#1 354538252#2 -419157838#0 -419157839#1 -213514710#0 213514899#1 -1293613855#0 119922955#3 119922955#4 119922955#5 119922955#6 119922955#7 119710741#7 119710741#8 119710741#9 119710741#10 119710741#11 119710741#12 119710741#13 119710741#14 119710741#15 119710741#16 119710741#17 119710741#18 119710741#19 119710741#20 119710741#21 119710741#22 119710741#23 310921265#1 310922593 -213514824#2"/>
    </vehicle>
    <vehicle id="43" type="car" depart="43.00">
        <route edges="E0 -213135420#2 -213135420#1 -213135420#0 213135420#9 1272695487#0 1272695487#1 1238504010#0 1238504010#1 -419196407 314361101#4 314361101#5 314361101#6 314361101#7 420684146 -213135543#3 -213135543#2 1238506053"/>
    </vehicle>
    <vehicle id="44" type="car" depart="44.00">
        <route edges="-129522793#0 129522793#0 129522793#1 129522793#2 129522793#3 129522793#4 129522771 -354536674#3 563795196#5 563795196#6 563795196#7 563795196#8 563795196#9 563795196#10 563795196#11 563795196#12 563795196#13 563795196#14 563795196#15 563795196#16 1202728446#0 -1202728446#0"/>
    </vehicle>
    <vehicle id="45" type="car" depart="45.00">
        <route edges="-152773095#7 -152773095#6 354533300 -970837500 970802871#0 970802871#1 970802871#2 970837499 970802872#0 970802872#1 970802872#2 970802872#3 711570549#5 711570550 362161865#3 362161865#4 362161865#5 362161865#6 362161865#7 1121196549#0 1121196549#1 234286744#0 234286744#1 234286744#2 234286744#3 234286744#4 759785847#0 759785847#1 759785847#2 759785847#3 759785847#4 759785847#5 759785847#6 759785842#3 759785842#4 759785842#5 759785842#6 759785842#7 759785842#8 759785842#9 759785842#10 843452856#0 843452856#1 843452857#0 843452857#1 310922593 -213514824#2 -213514829#0 -119710741#23 -119710741#22 -119710741#21 -119710741#20 -119710741#19 -119710741#18 -119710741#17 -119710741#16 -119710741#15 -119710741#14 -119710741#13 -119710741#12 -119710741#11 -119710741#10 -119710741#9 -119710741#8 -119710741#7 -119922955#7 -119922955#6 -119922955#5 -119922955#4 -119922955#3 1293613855#0 -213514899#1 213514710#0 419157839#1 419157838#0 -354538252#2 -354538252#1 -354538252#0 824843022#0 824843022#1 824843022#2 824843022#3 824843022#4 824843022#5 824843022#6 824843022#7 824843022#8 213514701#0 213514701#1 213514701#2 213514701#3 213514701#4 213514701#5 213514701#6 213514701#7 213514701#8 213514701#9 213514701#10 1160125864#0 1160125864#1 1160125864#2 1160125864#3 1160125864#4 158326986#0 158326986#1 158326986#2 158326986#3 158326986#4 158326986#5 158326986#6 158326986#7 158326986#8 158326986#9 158326986#10 158326986#11 158326986#12 158326986#13 158326986#14 -1270806707#9 -1270806707#8 -1270806707#7 -1270806707#6 -1270806707#5 -1270806707#4 -1270806707#3 -1270806707#2 -1270806707#1 -158331244#4 -158331244#3 -158331244#2 -158331244#1 -158331244#0 213135614#2 -213135456#1 213135456#1"/>
    </vehicle>
    <vehicle id="47" type="car" depart="47.00">
        <route edges="-1270806707#10 -1270806707#9 -1270806707#8 -1270806707#7 -1270806707#6 -1270806707#5 -1270806707#4 -1270806707#3 -1270806707#2 -1270806707#1 -158331244#4 -158331244#3 -158331244#2 158331245#2 311690841#1 1240071817 1203856052#11 1203856052#12 310904466#0 310904466#1 310904466#2 310904466#3 310904466#4 310904466#5 310904466#6 310904466#7 1203853288#0 1288248183 -416131627#18 -416131627#17 -416131627#16 -416131627#15 -416131627#14 -416131627#13 -416131627#12 -416131627#11 -416131627#10 -416131627#9 -397198539 -51761205#10"/>
    </vehicle>
    <vehicle id="48" type="car" depart="48.00">
        <route edges="970837497#2 -970837498 970802872#0 970802872#1 970802872#2 970802872#3 711570549#5 711570550 362161865#3 362161865#4 362161865#5 362161865#6 362161865#7 1121196549#0 1121196549#1 234286744#0 234286744#1 234286744#2 234286744#3 234286744#4 759785847#0 759785847#1 759785847#2 759785847#3 759785847#4 759785847#5 759785847#6 759785842#3 759785842#4 759785842#5 759785842#6 759785842#7 759785842#8 759785842#9 759785842#10 843452856#0 843452856#1 843452857#0 843452857#1 310922593 -213514824#2 -213514829#0 -119710741#23 -119710741#22 -119710741#21 -119710741#20 -119710741#19 -119710741#18 -119710741#17 -119710741#16 -119710741#15 -119710741#14 -119710741#13 -119710741#12 -119710741#11 -119710741#10 -119710741#9 -119710741#8 -119710741#7 -119922955#7 -119922955#6 -119922955#5 -119922955#4 -119922955#3 1293613855#0 -213514899#1 213514710#0 419157839#1 419157838#0 -354538252#2 -354538252#1 -354538252#0 824843022#0 824843022#1 824843022#2 824843022#3 824843022#4 824843022#5 824843022#6 824843022#7 824843022#8 213514701#0 213514701#1 213514701#2 213514701#3 213514701#4 213514701#5 213514701#6 213514701#7 213514701#8 213514701#9 213514701#10 1160125864#0 1160125864#1 1160125864#2 1160125864#3 1160125864#4 158326986#0 158326986#1 158326986#2 158326986#3 158326986#4 158326986#5 158326986#6 158326986#7 158326986#8 158326986#9 158326986#10 158326986#11 158326986#12 158326986#13 158326986#14 -1270806707#9 -1270806707#8 -1270806707#7 -1270806707#6 -1270806707#5 -1270806707#4 -1270806707#3 -1270806707#2 -1270806707#1 -158331244#4 -158331244#3 -158331244#2 158331245#2 311690841#1 1240071817 1203856052#11 1203856052#12 310904466#0 310904466#1 310904466#2 310904466#3 310904466#4 310904466#5 310904466#6 310904466#7 1203853288#0 1288248183"/>
    </vehicle>
    <vehicle id="49" type="car" depart="49.00">
        <route edges="821748909 213514930#3 213514930#4 213514930#5 -213514883#0 363171338#5 363171338#6 363171338#7 363171338#8 363171338#9 363171338#10 363171338#11 363171338#12 363171338#13 363171338#14 363171338#15 363171338#16 310922592#8 310922592#9 843452855#0 843452855#1 843452856#1 843452857#0 843452857#1 310922593 -213514824#2 -213514829#0 -119710741#23 -119710741#22 -119710741#21 -119710741#20 -119710741#19 -119710741#18 -119710741#17 -119710741#16 -119710741#15 -119710741#14 -119710741#13 -119710741#12 -119710741#11 -119710741#10 -119710741#9 -119710741#8 -119710741#7 -119922955#7 -119922955#6 -119922955#5 -119922955#4 -119922955#3 1293613855#0 -213514899#1 213514710#0 419157839#1 419157838#0 -354538252#2 -354538252#1 -354538252#0 824843022#0 824843022#1 824843022#2 824843022#3 824843022#4 824843022#5 824843022#6 824843022#7 824843022#8 213514701#0 213514701#1 213514701#2 213514701#3 213514701#4 213514701#5 213514701#6 213514701#7 213514701#8 213514701#9 213514701#10 1160125864#0 1160125864#1 1160125864#2 1160125864#3 1160125864#4 158326986#0 158326986#1 158326986#2 158326986#3 158326986#4 158326986#5 158326986#6 158326986#7 158326986#8 158326986#9 158326986#10 158326986#11 158326986#12 158326986#13 158326986#14 -1270806707#9 -1270806707#8 -1270806707#7 -1270806707#6 -1270806707#5 -1270806707#4 -1270806707#3 -1270806707#2 -1270806707#1 -158331244#4 -158331244#3 -158331244#2 158331245#2 311690841#1 1240071817 1203856052#11 1203856052#12 310904466#0 310904466#1 310904466#2 310904466#3 310904466#4 310904466#5 310904466#6 310904466#7 1203853288#0 1288248183 -416131627#18 -416131627#17 -416131627#16 -416131627#15 -416131627#14 -416131627#13 -416131627#12 -416131627#11 -416131627#10 -416131627#9 -416131627#8 -416131627#7 -416131627#6 -416131627#5 -416131627#4 -416131627#3 -416131627#2 -416131627#1 -416131627#0 1288248182 1225372232 1288243227#0 1288243227#1 1288239529 -1288239524 1288239525 665835970#2 1288243222 1288243221#0 1288243221#1 -419196424#1 -419196424#0 -51761231#3 213135155#0 213135155#1 213135155#2 213135155#3 213135155#4 -E13 -E11 E10 -213135696#3 -213135696#2 -213135696#1 391132877#2"/>
    </vehicle>
    <vehicle id="50" type="car" depart="50.00">
        <route edges="-1188018344#5 -1188018344#4 1188018344#4 1188018344#5 1188018344#6 563587941#0 563587941#1 563863442 563587939#2 563587939#3 313513163 313514734#0 313514734#1 313514734#2 313514734#3 313514734#4 711570549#0 711570549#1 711570549#2 711570549#3 711570549#4 711570549#5 711570550 362161865#3 362161865#4 362161865#5 362161865#6 362161865#7 1121196549#0 1121196549#1 -354531299#6 -215516605#2 215516680#1 215516680#2 215516680#3 215516680#4"/>
    </vehicle>
    <vehicle id="51" type="car" depart="51.00">
        <route edges="213495459#0 -213495459#0 -656644858 -213495518#3 -213495518#2 -213495518#1 -213495518#0 1203856052#2 1203856052#3 1203856052#4 1203856052#5 1203856052#6 1203856052#7 1203856052#8 1203856052#9 1240071818 311690841#3 311690841#4 1270806707#0 1270806707#1 1270806707#2 1270806707#3 1270806707#4 1270806707#5 1270806707#6 1270806707#7 1270806707#8 1270806707#9 -158326986#14 -158326986#13 -158326986#12 -158326986#11 -158326986#10 -158326986#9 -158326986#8 -158326986#7 -158326986#6 -158326986#5 -158326986#4 -158326986#3 -158326986#2 -158326986#1 -158326986#0 -1160125864#4 -1160125864#3 -1160125864#2 -1160125864#1 -1160125864#0 -213514701#10 -213514701#9 -213514701#8 -213514701#7 -213514701#6 -213514701#5 -213514701#4 -213514701#3 -213514701#2 -213514701#1 -213514701#0 -824843022#8 -824843022#7 -824843022#6 -824843022#5 -824843022#4 -824843022#3 -824843022#2 -824843022#1 -824843022#0 354538252#0 354538252#1 354538252#2 -419157838#0 -419157839#1 -213514710#0 213514899#1 -1293613855#0 119922955#3 119922955#4 119922955#5 119922955#6 119922955#7 119710741#7 119710741#8 119710741#9 119710741#10 119710741#11 119710741#12 119710741#13 119710741#14 119710741#15 119710741#16 119710741#17 119710741#18 119710741#19 119710741#20 119710741#21 -354532004#3 839555248 310919302#7 310919302#8 310919302#9 310919302#10 310919302#11 843452862#0 843452862#1 1178128132#0 1178128132#1 1178128132#2 1178128132#3 1178128132#4 1178128132#5 1178128132#6 1178128132#7 1178128132#8 1178128132#9 1178128132#10 718369276#0 718369276#1 718369276#2 718369276#3 718446020 234286750#4 234286750#5 234286750#6 234286750#7 234286750#8 234286750#9 234286750#10 234286750#11 234286750#12 234286750#13 234286750#14 234286750#15 234286750#16 234286750#17 234286750#18 234286750#19 711570658 1178168899#0 1178168899#1 313513166#0 313513166#1 313513166#2 313513166#3 313513166#4 313513166#5 315567259#0 315567259#1 315567259#2 315567259#3 315567259#4 -1188018344#6 -1188018344#5 -1188018344#4 -1188018344#3 -1188018344#2 -1188018344#1 -1188018344#0 -1202728444#1 -1202728444#0 -1202728447 -1202728446#2 -129393868#1 129393876#1 129393876#2"/>
    </vehicle>
    <vehicle id="52" type="car" depart="52.00">
        <route edges="-281252927#2 -281252927#1 -332098751#2 -332098751#1 -129524234#2 -129524234#1 -129524234#0 281245827#1 281245827#2 -281245825#2 -281245825#1 -281245825#0 1188020783 1084005676 -710687436#0 313513166#2 563861744 313514734#3 313514734#4 711570549#0 711570549#1 711570549#2 711570549#3 711570549#4 711570549#5 711570550 362161865#3 362161865#4 362161865#5 362161865#6 362161865#7 1121196549#0 1121196549#1 234286744#0 234286744#1 234286744#2 234286744#3 234286744#4 759785847#0 759785847#1 759785847#2 759785847#3 759785847#4 759785847#5 759785847#6 759785842#3 759785842#4 759785842#5 759785842#6 759785842#7 759785842#8 759785842#9 759785842#10 843452856#0 843452856#1 843452857#0 843452857#1 310922593 -213514824#2 -213514829#0 -119710741#23 -119710741#22 -119710741#21 -119710741#20 -119710741#19 -119710741#18 -119710741#17 -119710741#16 -119710741#15 -119710741#14 -119710741#13 -119710741#12 -119710741#11 -119710741#10 -119710741#9 -119710741#8 -119710741#7 -119922955#7 -119922955#6 -119922955#5 -119922955#4 -119922955#3 1293613855#0 -213514899#1 213514710#0 419157839#1 419157838#0 -354538252#2 -354538252#1 -354538252#0 824843022#0 824843022#1 824843022#2 824843022#3 824843022#4 824843022#5 824843022#6 824843022#7 824843022#8 213514701#0 213514701#1 213514701#2 213514701#3 213514701#4 213514701#5 213514701#6 213514701#7 213514701#8 213514701#9 213514701#10 1160125864#0 1160125864#1 1160125864#2 1160125864#3 1160125864#4 158326986#0 158326986#1 158326986#2 158326986#3 158326986#4 158326986#5 158326986#6 158326986#7 158326986#8 158326986#9 158326986#10 158326986#11 158326986#12 158326986#13 158326986#14 -1270806707#9 -1270806707#8 -1270806707#7 -1270806707#6 -1270806707#5 -1270806707#4 -1270806707#3 -1270806707#2 -1270806707#1 -158331244#4 -158331244#3 -158331244#2 158331245#2 311690841#1 1240071817 1203856052#11 1203856052#12 310904466#0 310904466#1 310904466#2 310904466#3 310904466#4 310904466#5 310904466#6 310904466#7 1203853288#0 1288248183 -416131627#18 -416131627#17 -416131627#16 -416131627#15 -416131627#14 213135746#1"/>
    </vehicle>
    <vehicle id="53" type="car" depart="53.00">
        <route edges="-152773539#9 -152773539#8 -215516507#2 -215516507#1 -215516507#0 -656617178#1 -656617178#0 -354538085#5 -354534778#11 -354534778#10 -354534778#9 -354534778#8 -354534778#7 -354534778#6 -354534778#5 -354534778#4 -354534778#3 -354534778#2 -354534778#1 -354534778#0 1121196549#0 1121196549#1 234286744#0 234286744#1 234286744#2 234286744#3 234286744#4 759785847#0 759785847#1 759785847#2 759785847#3 759785847#4 759785847#5 759785847#6 759785842#3 759785842#4 759785842#5 759785842#6 759785842#7 759785842#8 759785842#9 -1209295606 -213155562#2 -213469054#5 -213469054#4 -1271663615 -1058241500#3 1058241500#3"/>
    </vehicle>
    <vehicle id="54" type="car" depart="54.00">
        <route edges="-902964617 825738360#3 825738360#4 825738360#5 1160125865 -213514701#10 -213514701#9 -213514701#8 -213514701#7 -213514701#6 -213514701#5 -213514701#4 -213514701#3 -213514701#2 -213514701#1 -213514701#0 -824843022#8 -824843022#7 -824843022#6 -824843022#5 -824843022#4 -824843022#3 -824843022#2 -824843022#1 -824843022#0 354538252#0 354538252#1 354538252#2 -419157838#0 -419157839#1 -213514710#0 213514899#1 -1293613855#0 119922955#3 119922955#4 119922955#5 119922955#6 119922955#7 119710741#7 119710741#8 119710741#9 119710741#10 119710741#11 119710741#12 119710741#13 119710741#14 119710741#15 119710741#16 119710741#17 119710741#18 119710741#19 119710741#20 119710741#21 -354532004#3 839555248 310919302#7 310919302#8 310919302#9 310919302#10 310919302#11 843452862#0 843452862#1 1178128132#0 1178128132#1 1178128132#2 1178128132#3 1178128132#4 1178128132#5 1178128132#6 1178128132#7 1178128132#8 1178128132#9 1178128132#10 718369276#0 718369276#1 718369276#2 718369276#3"/>
    </vehicle>
    <vehicle id="55" type="car" depart="55.00">
        <route edges="416131627#18 -1288248183 1203853288#1 -1189455395 310919322#2 310919322#3 310919322#4 310919322#5 310919322#6 310919322#7 310919322#8 311690841#0 311690841#1 311690841#2 311690841#3 311690841#4 1270806707#0 1270806707#1 1270806707#2 1270806707#3 1270806707#4 1270806707#5 1270806707#6 1270806707#7 1270806707#8 1270806707#9 -158326986#14 -158326986#13 -158326986#12 -158326986#11 -158326986#10 -158326986#9 -158326986#8 -158326986#7 -158326986#6 -158326986#5 -158326986#4 -158326986#3 -158326986#2 -158326986#1 -158326986#0 -1160125864#4 -1160125864#3 -1160125864#2 -1160125864#1 -1160125864#0 -213514701#10 -213514701#9 -213514701#8 -213514701#7 -213514701#6 -213514701#5 -213514701#4 -213514701#3 -213514701#2 -213514701#1 -213514701#0 -824843022#8 -824843022#7 -824843022#6 -824843022#5 -824843022#4 -824843022#3 -824843022#2 -824843022#1 -824843022#0 354538252#0 354538252#1 354538252#2 -419157838#0 -419157839#1 -213514710#0 213514899#1 -1293613855#0 119922955#3 119922955#4 119922955#5 119922955#6 119922955#7 119710741#7 119710741#8 119710741#9 119710741#10 119710741#11 119710741#12 119710741#13 119710741#14 119710741#15 119710741#16 119710741#17 119710741#18 119710741#19 119710741#20 119710741#21 -354532004#3 839555248 310919302#7 310919302#8 310919302#9 310919302#10 310919302#11 843452862#0 843452862#1 1178128132#0 1178128132#1 1178128132#2 1178128132#3 1178128132#4 1178128132#5 1178128132#6 1178128132#7 1178128132#8 1178128132#9 1178128132#10 718369276#0 718369276#1 718369276#2 718369276#3 718446020 234286750#4 234286750#5 234286750#6 234286750#7 234286750#8 234286750#9 234286750#10 234286750#11 234286750#12 234286750#13 234286750#14 234286750#15 234286750#16 234286750#17 234286750#18 234286750#19 711570658 1178168899#0 1178168899#1 313513166#0 313513166#1 313513166#2 313513166#3 313513166#4 313513166#5 315567259#0 315567259#1 315567259#2 315567259#3 315567259#4 563587941#0 563587941#1 563863442 563587939#2 711570089 605484361 -782395489#1 -782395489#0 31427343#0 31427343#1 31427343#2 31427343#3 31427343#4 -31427343#4"/>
    </vehicle>
    <vehicle id="56" type="car" depart="56.00">
        <route edges="119715265#0 -119715265#0 -119710741#14 -119710741#13 -119710741#12 -119710741#11 -119710741#10 -119710741#9 -119710741#8 -119710741#7 -119922955#7 -119922955#6 -119922955#5 -119922955#4 -119922955#3 1293613855#0 -213514899#1 213514710#0 419157839#1 419157838#0 -354538252#2 -354538252#1 -354538252#0 824843022#0 824843022#1 824843022#2 824843022#3 824843022#4 824843022#5 824843022#6 824843022#7 824843022#8 213514701#0 213514701#1 213514701#2 213514701#3 213514701#4 213514701#5 213514701#6 213514701#7 213514701#8 213514701#9 213514701#10 1160125864#0 1160125864#1 1160125864#2 1160125864#3 1160125864#4 158326986#0 158326986#1 158326986#2 158326986#3 158326986#4 158326986#5 158326986#6 158326986#7 158326986#8 158326986#9 158326986#10 158326986#11 158326986#12 158326986#13 158326986#14 -1270806707#9 -1270806707#8 -1270806707#7 -1270806707#6 -1270806707#5 -1270806707#4 -1270806707#3 -1270806707#2 -1270806707#1 -158331244#4 -158331244#3 -158331244#2 158331245#2 311690841#1 1240071817 1203856052#11 -213155709#2"/>
    </vehicle>
    <vehicle id="57" type="car" depart="57.00">
        <route edges="51761231#0 -51761231#0 694965025#0 818432974#0 818432974#1 818432974#2 818432974#3 818432974#4 818432974#5 818432974#6 818432974#7 1160123731#0 1160123731#1 694965020 -1288248181 310919322#3 310919322#4 310919322#5 310919322#6 310919322#7 310919322#8 311690841#0 311690841#1 311690841#2 311690841#3 311690841#4 1270806707#0 1270806707#1 1270806707#2 1270806707#3 1270806707#4 1270806707#5 1270806707#6 1270806707#7 1270806707#8 1270806707#9 -158326986#14 -158326986#13 -158326986#12 -158326986#11 -158326986#10 -158326986#9 -158326986#8 -158326986#7 -158326986#6 -158326986#5 -158326986#4 -158326986#3 -158326986#2 -158326986#1 -158326986#0 -1160125864#4 -1160125864#3 -1160125864#2 -1160125864#1 -1160125864#0 -213514701#10 -213514701#9 -213514701#8 -213514701#7 -213514701#6 -213514701#5 -213514701#4 -213514701#3 -213514701#2 -213514701#1 -213514701#0 -824843022#8 -824843022#7 -824843022#6 -824843022#5 -824843022#4 -824843022#3 -824843022#2 -824843022#1 -824843022#0 354538252#0 354538252#1 354538252#2 -419157838#0 -419157839#1 -213514710#0 213514899#1 -1293613855#0 119922955#3 119922955#4 119922955#5 119922955#6 119922955#7 119710741#7 119710741#8 119710741#9 119710741#10 119710741#11 119710741#12 213514778#0 213514778#1 213514672#2 416136613"/>
    </vehicle>
    <vehicle id="58" type="car" depart="58.00">
        <route edges="-354531220#0 129519432#2 129519432#3 129519432#4 -354532444 -129519428#1 129519422#1 129519437#0 129519437#1 129519437#2 -129519439#1 -129519439#0 52015024#5 52015024#6 52015024#7 563795196#10 563795196#11 563795196#12 563795196#13 563795196#14 563795196#15 563795196#16 1202728446#0 1202728446#1 1202728446#2 1202728447 1202728444#0 1202728444#1 1188018344#0 1188018344#1 1188018344#2 1188018344#3 1188018344#4 1188018344#5 1188018344#6 563587941#0 563587941#1 563863442 563587939#2 563587939#3 313513163 313514734#0 313514734#1 313514734#2 313514734#3 313514734#4 711570549#0 711570549#1 711570549#2 711570549#3 711570549#4 711570549#5 711570550 362161865#3 362161865#4 362161865#5 362161865#6 362161865#7 1121196549#0 1121196549#1 234286744#0 234286744#1 234286744#2 234286744#3 234286744#4 759785847#0 759785847#1 759785847#2 759785847#3 759785847#4 759785847#5 759785847#6 759785842#3 759785842#4 759785842#5 759785842#6 759785842#7 759785842#8 759785842#9 759785842#10 843452856#0 843452856#1 843452857#0 843452857#1 310922593 -213514824#2 -213514829#0 -119710741#23 -119710741#22 -119710741#21 -119710741#20 -119710741#19 -119710741#18 -119710741#17 -119710741#16 -119710741#15 -119710741#14 -119710741#13 -119710741#12 -119710741#11 -119710741#10 -119710741#9 -119710741#8 -119710741#7 -119922955#7 -119922955#6 -119922955#5 -119922955#4 -119922955#3 1293613855#0 -213514899#1 213514710#0 419157839#1 419157838#0 -354538252#2 -354538252#1 -354538252#0 824843022#0 824843022#1 824843022#2 824843022#3 824843022#4 824843022#5 824843022#6 824843022#7 824843022#8 213514701#0 213514701#1 213514701#2 213514701#3 213514701#4 213514701#5 213514701#6 213514701#7 213514701#8 213514701#9 213514701#10 1160125864#0 1160125864#1 1160125864#2 1160125864#3 1160125864#4 158326986#0 158326986#1 158326986#2 158326986#3 158326986#4 158326986#5 158326986#6 158326986#7 158326986#8 158326986#9 158326986#10 158326986#11 158326986#12 158326986#13 158326986#14 -1270806707#9 -1270806707#8 -1270806707#7 -1270806707#6 -1270806707#5 -1270806707#4 -1270806707#3 -1270806707#2 -1270806707#1 -158331244#4 -158331244#3 -158331244#2 158331245#2 311690841#1 1240071817 1203856052#11 1203856052#12 310904466#0 310904466#1 310904466#2 310904466#3 310904466#4 310904466#5 310904466#6 310904466#7 1203853288#0 1203853288#1 -1189455395 310919322#2 1288248181 -694965020 825814009 825814008 213135732#0 213135732#1 213135732#2"/>
    </vehicle>
    <vehicle id="59" type="car" depart="59.00">
        <route edges="152970539#1 152970539#2 152970539#3 -152774016#4 -152774016#3 -354532758#3 -354532758#2 -354532758#1 -354532758#0 362161865#6 362161865#7 1121196549#0 1121196549#1 234286744#0 234286744#1 234286744#2 234286744#3 234286744#4 759785847#0 759785847#1 759785847#2 759785847#3 759785847#4 759785847#5 759785847#6 759785842#3 759785842#4 759785842#5 759785842#6 759785842#7 759785842#8 759785842#9 759785842#10 843452856#0 843452856#1 843452857#0 843452857#1 310922593 -213514824#2 -213514829#0 -119710741#23 -119710741#22 -119710741#21 -119710741#20 -119710741#19 -119710741#18 -119710741#17 -119710741#16 -119710741#15 -119710741#14 -119710741#13 -119710741#12 -119710741#11 -119710741#10 -119710741#9 -119710741#8 -119710741#7 -119922955#7 -119922955#6 -119922955#5 -119922955#4 -119922955#3 1293613855#0 -213514899#1 213514710#0 419157839#1 419157838#0 -354538252#2 -354538252#1 -354538252#0 824843022#0 824843022#1 824843022#2 824843022#3 824843022#4 824843022#5 824843022#6 824843022#7 824843022#8 213514701#0 213514701#1 213514701#2 213514701#3 213514701#4 213514701#5 213514701#6 213514701#7 213514701#8 213514701#9 213514701#10 1160125864#0 1160125864#1 1160125864#2 1160125864#3 1160125864#4 158326986#0 158326986#1 158326986#2 158326986#3 158326986#4 158326986#5 158326986#6 158326986#7 158326986#8 158326986#9 158326986#10 158326986#11 158326986#12 158326986#13 158326986#14 -1270806707#9 -1270806707#8 -1270806707#7 -1270806707#6 -1270806707#5 -1270806707#4 -1270806707#3 -1270806707#2 -1270806707#1 -158331244#4 -158331244#3 -158331244#2 158331245#2 311690841#1 1240071817 1203856052#11 1203856052#12 310904466#0 310904466#1 310904466#2 310904466#3 310904466#4 310904466#5 310904466#6 310904466#7 1203853288#0 1203853288#1 -1189455395 310919322#2 1288248181 -694965020 825814009 825814008 213135732#0 213135732#1 213135732#2 213135222#0 -213135222#0"/>
    </vehicle>
    <vehicle id="60" type="car" depart="60.00">
        <route edges="310919332#3 213135483#0 416131627#11 416131627#12 416131627#13 416131627#14 416131627#15 416131627#16 416131627#17 416131627#18 -1288248183 1203853288#1 -1189455395 310919322#2 310919322#3 310919322#4 310919322#5 310919322#6 310919322#7 310919322#8 311690841#0 311690841#1 311690841#2 311690841#3 311690841#4 1270806707#0 1270806707#1 1270806707#2 1270806707#3 1270806707#4 1270806707#5 1270806707#6 1270806707#7 1270806707#8 1270806707#9 -158326986#14 -158326986#13 -158326986#12 -158326986#11 -158326986#10 -158326986#9 -158326986#8 -158326986#7 -158326986#6 -158326986#5 -158326986#4 -158326986#3 -158326986#2 -158326986#1 -158326986#0 -1160125864#4 -1160125864#3 -1160125864#2 -1160125864#1 -1160125864#0 -213514701#10 -213514701#9 -213514701#8 -213514701#7 -213514701#6 -213514701#5 -213514701#4 -213514701#3 -213514701#2 -213514701#1 -213514701#0 -824843022#8 -824843022#7 -824843022#6 -824843022#5 -824843022#4 -824843022#3 -824843022#2 -824843022#1 -824843022#0 354538252#0 354538252#1 354538252#2 -419157838#0 -419157839#1 -213514710#0 213514899#1 -1293613855#0 119922955#3 119922955#4 119922955#5 119922955#6 119922955#7 119710741#7 119710741#8 119710741#9 119710741#10 119710741#11 119710741#12 119710741#13 119710741#14 119710741#15 119710741#16 119710741#17 119710741#18 119710741#19 119710741#20 119710741#21 -354532004#3 839555248 310919302#7 310919302#8 310919302#9 310919302#10 310919302#11 843452862#0 843452862#1 1178128132#0 1178128132#1 1178128132#2 1178128132#3 1178128132#4 1178128132#5 1178128132#6 1178128132#7 1178128132#8 1178128132#9 1178128132#10 718369276#0 718369276#1 718369276#2 718369276#3 718446020 234286750#4 234286750#5 234286750#6 234286750#7 234286750#8 234286750#9 234286750#10 234286750#11 234286750#12 234286750#13 234286750#14 234286750#15 234286750#16 234286750#17 234286750#18 234286750#19 711570658 1178168899#0 1178168899#1 313513166#0 313513166#1 313513166#2 313513166#3 313513166#4 313513166#5 315567259#0 315567259#1 315567259#2 315567259#3 315567259#4 563587941#0 563587941#1 563587941#2 563587941#3 563587941#4 563587941#5 52015024#0 52015024#1 52015024#2 52015024#3 52015024#4 129519439#0 129519424#0 129519424#1 129519424#2"/>
    </vehicle>
    <vehicle id="61" type="car" depart="61.00">
        <route edges="313514734#3 313514734#4 711570549#0 711570549#1 711570549#2 711570549#3 711570549#4 711570549#5 711570550 362161865#3 362161865#4 362161865#5 362161865#6 362161865#7 1121196549#0 1121196549#1 234286744#0 234286744#1 234286744#2 234286744#3 234286744#4 759785847#0 759785847#1 759785847#2 759785847#3 759785847#4 759785847#5 759785847#6 759785842#3 759785842#4 759785842#5 759785842#6 759785842#7 759785842#8 759785842#9 759785842#10 843452856#0 843452856#1 843452857#0 843452857#1 310922593 -213514824#2 -213514829#0 -119710741#23 -119710741#22 -119710741#21 -119710741#20 -119710741#19 -119710741#18 -119710741#17 -119710741#16 -119710741#15 -119710741#14 -119710741#13 -119710741#12 -119710741#11 -119710741#10 -119710741#9 -119710741#8 -119710741#7 -119710741#6 656641548#0 656641548#1 656641548#2 656641548#3 656641548#4 656641548#5 1293608876#0"/>
    </vehicle>
    <vehicle id="62" type="car" depart="62.00">
        <route edges="-1058241500#0 1058241500#0 1058241500#1 1058241500#2 1058241500#3 1271663615 213469054#4 213469054#5 213155562#2 1209295606 759785842#10 843452856#0 843452856#1 843452857#0 310919302#11 843452862#0 843452862#1 1178128132#0 1178128132#1 1178128132#2 1178128132#3 1178128132#4 1178128132#5 1178128132#6 1178128132#7 1178128132#8 1178128132#9 1178128132#10 718369276#0 718369276#1 718369276#2 718369276#3 718446020 234286750#4 234286750#5 234286750#6 234286750#7 234286750#8 234286750#9 234286750#10 234286750#11 234286750#12 234286750#13 234286750#14 234286750#15 234286750#16 234286750#17 234286750#18 234286750#19 711570658 1178168899#0 1178168899#1 313513166#0 313513166#1 313513166#2 313513166#3 313513166#4 313513166#5 315567259#0 315567259#1 315567259#2 315567259#3 315567259#4 563587941#0 563587941#1 563863442 563587939#2 711570089 605484361 -782395489#1 782395488 31427355#0 31427355#1 31427355#2 -31427351#1 -129534738#3 -354536402#2"/>
    </vehicle>
    <vehicle id="63" type="car" depart="63.00">
        <route edges="-1188778401 213135603#0 213135603#1 213135603#2 1272695487#1 1238504010#0 1238504010#1 -419196407 -314361101#3 -314361101#2 -314361101#1 1160123731#0 1160123731#1 694965020 -1288248181 310919322#3 310919322#4 310919322#5 310919322#6 310919322#7 310919322#8 311690841#0 311690841#1 311690841#2 311690841#3 311690841#4 1270806707#0 1270806707#1 1270806707#2 1270806707#3 1270806707#4 1270806707#5 1270806707#6 1270806707#7 1270806707#8 1270806707#9 -158326986#14 -158326986#13 -158326986#12 -158326986#11 -158326986#10 -158326986#9 -158326986#8 -158326986#7 -158326986#6 -158326986#5 -158326986#4 -158326986#3 -158326986#2 -158326986#1 -158326986#0 -1160125864#4 -1160125864#3 -1160125864#2 -1160125864#1 -1160125864#0 -213514701#10 -213514701#9 -213514701#8 -213514701#7 -213514701#6 -213514701#5 -213514701#4 -213514701#3 -213514701#2 -213514701#1 -213514701#0 -824843022#8 -824843022#7 -824843022#6 -824843022#5 -824843022#4 -824843022#3 -824843022#2 -824843022#1 -824843022#0 354538252#0 354538252#1 354538252#2 -419157838#0 -419157839#1 -213514710#0 213514899#1 -1293613855#0 119922955#3 119922955#4 119922955#5 119922955#6 119922955#7 119710741#7 119710741#8 119710741#9 119710741#10 119710741#11 119710741#12 119710741#13 119710741#14 119710741#15 119710741#16 119710741#17 119710741#18 119710741#19 119710741#20 119710741#21 -354532004#3 839555248 310919302#7 1240072215 843452864#3 843452864#4 843452864#5 843452864#6 843452864#7 843452864#8 843452864#9 843452864#10 843452864#11 843452864#12 310919303 1188069879 1188069875#2 656636431#0"/>
    </vehicle>
    <vehicle id="64" type="car" depart="64.00">
        <route edges="416303259#1 -1188069876#0 1188069875#0 1188069875#1 -1188069879 -310919303 843452864#13 843452864#14 843452864#15 843452864#16 843452864#17 310919306 311690310 314517084 310919302#0 310919302#1 119710741#0 119710741#1 119710741#2 119710741#3 119710741#4 119710741#5 119710741#6 119710741#7 119710741#8 119710741#9 119710741#10 119710741#11 119710741#12 119710741#13 119710741#14 119710741#15 119710741#16 119710741#17 119710741#18 119710741#19 119710741#20 119710741#21 -354532004#3 839555248 310919302#7 310919302#8 310919302#9 310919302#10 310919302#11 843452862#0 843452862#1 1178128132#0 1178128132#1 1178128132#2 1178128132#3 1178128132#4 1178128132#5 1178128132#6 1178128132#7 1178128132#8 1178128132#9 1178128132#10 718369276#0 718369276#1 718369276#2 718369276#3 718446020 234286750#4 234286750#5 234286750#6 234286750#7 234286750#8 234286750#9 234286750#10 234286750#11 234286750#12 234286750#13 234286750#14 234286750#15 234286750#16 1272670479 362161865#5 354532758#0 354532758#1 354532758#2 354532758#3 -152774016#2 -152962045#2 -152962045#1 152971156 354535533"/>
    </vehicle>
    <vehicle id="65" type="car" depart="65.00">
        <route edges="-354532656#2 354532656#2 -354531765#3 -354531765#2 -354531765#1 846804614#1 702376526#0 1231032837 311690841#27 311690841#28 311690841#29 311690841#30 311690841#31 702376527#0 1124099555 310919302#1 119710741#0 119710741#1 119710741#2 119710741#3 119710741#4 119710741#5 119710741#6 119710741#7 119710741#8 119710741#9 119710741#10 119710741#11 119710741#12 119710741#13 119710741#14 119710741#15 119710741#16 119710741#17 119710741#18 119710741#19 119710741#20 119710741#21 -354532004#3 839555248 310919302#7 310919302#8 310919302#9 310919302#10 310919302#11 843452862#0 843452862#1 1178128132#0 1178128132#1 1178128132#2 1178128132#3 1178128132#4 1178128132#5 1240072922 759785842#7 -1271676504 52014999#0 213156274#2 213156274#3 213156274#4 354533688 1271679879 -1271679879"/>
    </vehicle>
    <vehicle id="66" type="car" depart="66.00">
[...]
    </vehicle>
    <vehicle id="82" type="car" depart="82.00">
        <route edges="362161865#1 362161865#2 362161865#3 714277223 234286750#18 234286750#19 711570658 1178168899#0 1178168899#1 313513166#0 313513166#1 313513166#2 313513166#3 313513166#4 313513166#5 315567259#0 315567259#1 315567259#2 315567259#3 315567259#4 563587941#0 563587941#1 563587941#2 563587941#3 563587941#4 563587941#5 52015024#0 52015024#1 52015024#2 52015024#3 129519420#0 -129519422#4 -129519422#3"/>
    </vehicle>
    <vehicle id="83" type="car" depart="83.00">
        <route edges="-213514899#1 213514710#0 419157839#1 419157838#0 -354538252#2 -354538252#1 -354538252#0 824843022#0 824843022#1 824843022#2 824843022#3 824843022#4 824843022#5 824843022#6 824843022#7 824843022#8 213514701#0 213514701#1 213514701#2 213514701#3 213514701#4 213514701#5 213514701#6 213514701#7 213514701#8 213514701#9 213514701#10 1160125864#0 1160125864#1 1160125864#2 1160125864#3 1160125864#4 158326986#0 158326986#1 158326986#2 158326986#3 158326986#4 158326986#5 213495504#0 213495504#1"/>
    </vehicle>
    <vehicle id="84" type="car" depart="84.00">
        <route edges="-213514701#10 213514701#10 1160125864#0 1160125864#1 1160125864#2 1160125864#3 1160125864#4 158326986#0 158326986#1 158326986#2 158326986#3 158326986#4 158326986#5 158326986#6 158326986#7 158326986#8 158326986#9 158326986#10 158326986#11 158326986#12 158326986#13 158326986#14 -1270806707#9 -1270806707#8 -1270806707#7 -1270806707#6 -1270806707#5 -1270806707#4 -1270806707#3 -1270806707#2 -1270806707#1 -158331244#4 -158331244#3 -158331244#2 -158331244#1 213135522#0 -158331233"/>
    </vehicle>
    <vehicle id="85" type="car" depart="85.00">
        <route edges="673625369 129532514#1 673625367#0 -233394604#2 -233394604#1 -233394604#0 563795196#0 563795196#1 563795196#2 563795196#3 563795196#4 563795196#5 563795196#6 563795196#7 563795196#8 563795196#9 563795196#10 563795196#11 563795196#12 563795196#13 563795196#14 563795196#15 563795196#16 1202728446#0 1202728446#1 1202728446#2 1202728447 1202728444#0 1202728444#1 1188018344#0 1188018344#1 1188018344#2 1188018344#3 1188018344#4 1188018344#5 1188018344#6 563587941#0 563587941#1 563863442 563587939#2 563587939#3 313513163 313514734#0 313514734#1 313514734#2 313514734#3 313514734#4 711570549#0 711570549#1 711570549#2 711570549#3 970837497#1 970837497#2 970837496#0 970837496#1 970837496#2 -354533300 152773095#6 152773095#7 152773095#8"/>
    </vehicle>
    <vehicle id="86" type="car" depart="86.00">
        <route edges="1178128132#10 1178128132#11 1178128132#12 1178128132#13 1178128134 234286750#0 234286750#1 1271902606 234286744#6 1178128133 759785842#0 759785842#1 759785842#2 759785842#3 759785842#4 759785842#5 759785842#6 759785842#7 759785842#8 759785842#9 759785842#10 843452856#0 843452856#1 843452857#0 843452857#1 310922593 -213514824#2 -213514829#0 -119710741#23 -119710741#22 -119710741#21 -119710741#20 -119710741#19 -119710741#18 -119710741#17 -119710741#16 -119710741#15 -119710741#14 -119710741#13 -119710741#12 -119710741#11 -119710741#10 -119710741#9 -119710741#8 -119710741#7 -119922955#7 -119922955#6 -119922955#5 -119922955#4 -119922955#3 1293613855#0 -213514899#1 213514710#0 419157839#1 419157838#0 -354538252#2 -354538252#1 -354538252#0 824843022#0 824843022#1 824843022#2 824843022#3 824843022#4 824843022#5 824843022#6 824843022#7 824843022#8 213514701#0 213514701#1 213514701#2 213514701#3 213514701#4 213514701#5 213514701#6 213514701#7 213514701#8 213514701#9 213514701#10 1160125864#0 1160125864#1 1160125864#2 1160125864#3 1160125864#4 158326986#0 158326986#1 158326986#2 158326986#3 158326986#4 158326986#5 158326986#6 158326986#7 158326986#8 158326986#9 158326986#10 158326986#11 158326986#12 158326986#13 158326986#14 -1270806707#9 -1270806707#8 -1270806707#7 -1270806707#6 -1270806707#5 -1270806707#4 -1270806707#3 -1270806707#2 -1270806707#1 -158331244#4 -158331244#3 -158331244#2 158331245#2 311690841#1 1240071817 1203856052#11 1203856052#12 310904466#0 310904466#1 310904466#2 310904466#3 310904466#4 310904466#5 310904466#6 310904466#7 1203853288#0 1288248183 -416131627#18 -416131627#17 -416131627#16 -416131627#15 -416131627#14 -416131627#13 -416131627#12 -416131627#11 -416131627#10 -416131627#9 -416131627#8 -416131627#7 -416131627#6 -416131627#5 -416131627#4 -416131627#3 -416131627#2 -416131627#1 -416131627#0 1288248182 1225372232 1288243227#0 1288243227#1 1288243227#2 31608203#0 31608203#1 442738026 665835668#0 665835668#1 665835668#2 31608208 31608236#0 31608236#1 31608236#2 -31611066#5 -31611066#4 31611066#4"/>
    </vehicle>
    <vehicle id="88" type="car" depart="88.00">
        <route edges="-129534735 129534735 129534738#1 129534738#2 129534738#3 31427351#1 -31427355#2 31427347#6 711023972#2 -847119344 774954299#1 774954299#2 313514734#1 313514734#2 313514734#3 313514734#4 711570549#0 711570549#1 711570549#2 711570549#3 711570549#4 711570549#5 711570550 362161865#3 362161865#4 362161865#5 362161865#6 362161865#7 1121196549#0 1121196549#1 234286744#0 234286744#1 234286744#2 234286744#3 234286744#4 759785847#0 759785847#1 759785847#2 759785847#3 759785847#4 759785847#5 759785847#6 759785842#3 759785842#4 759785842#5 759785842#6 759785842#7 759785842#8 759785842#9 759785842#10 843452856#0 843452856#1 843452857#0 843452857#1 310922593 -213514824#2 -213514829#0 -119710741#23 -119710741#22 -119710741#21 -119710741#20 -119710741#19 -119710741#18 -119710741#17 -119710741#16 -119710741#15 -119710741#14 -119710741#13 -119710741#12 -119710741#11 -119710741#10 -119710741#9 -119710741#8 -119710741#7 -119922955#7 -119922955#6 -119922955#5 -119922955#4 -119922955#3 1293613855#0 -213514899#1 213514710#0 419157839#1 419157838#0 -354538252#2 -354538252#1 -354538252#0 824843022#0 824843022#1 824843022#2 824843022#3 824843022#4 824843022#5 824843022#6 824843022#7 824843022#8 213514701#0 213514701#1 213514701#2 213514701#3 213514701#4 213514701#5 213514701#6 213514701#7 213514701#8 213514701#9 213514701#10 1160125864#0 1160125864#1 1160125864#2 1160125864#3 1160125864#4 158326986#0 158326986#1 158326986#2 158326986#3 158326986#4 158326986#5 158326986#6 158326986#7 158326986#8 158326986#9 158326986#10 158326986#11 158326986#12 158326986#13 158326986#14 -1270806707#9 -1270806707#8 -1270806707#7 -1270806707#6 -1270806707#5 -1270806707#4 -1270806707#3 -1270806707#2 -1270806707#1 -158331244#4 -158331244#3 -158331244#2 158331245#2 311690841#1 1240071817 1203856052#11 1203856052#12 310904466#0 310904466#1 310904466#2 310904466#3 310904466#4 310904466#5 310904466#6 310904466#7 1203853288#0 1203853288#1 -1189455395 310919322#2 1288248181 -694965020 -1160123731#1 -1160123731#0 314361101#1 314361101#2 314361101#3 419196407 -1238504010#1 -1238504010#0 -1272695487#1 -1272695487#0 -213135420#9 -213135420#8 -213135420#7 -819400344#2 -819400344#1 -819400344#0 -E0"/>
    </vehicle>
    <vehicle id="89" type="car" depart="89.00">
        <route edges="-702376528#0 702376527#0 1124099555 310919302#1 119710741#0 119710741#1 119710741#2 119710741#3 119710741#4 119710741#5 119710741#6 -119922955#7 -119922955#6 -119922955#5 -119922955#4 -119922955#3 1293613855#0 -213514899#1 213514710#0 419157839#1 419157838#0 -354538252#2 -354538252#1 -354538252#0 824843022#0 824843022#1 824843022#2 824843022#3 824843022#4 824843022#5 824843022#6 824843022#7 824843022#8 213514701#0 213514701#1 213514701#2 213514701#3 213514701#4 213514701#5 213514701#6 213514701#7 213514701#8 213514701#9 213514701#10 1160125864#0 1160125864#1 1160125864#2 1160125864#3 1160125864#4 158326986#0 158326986#1 158326986#2 158326986#3 158326986#4 158326986#5 158326986#6 158326986#7 158326986#8 158326986#9 158326986#10 158326986#11 158326986#12 158326986#13 158326986#14 -1270806707#9 -1270806707#8 -1270806707#7 -1270806707#6 -1270806707#5 1272702083 1189112019#5"/>
    </vehicle>
    <vehicle id="90" type="car" depart="90.00">
        <route edges="215516605#1 215516605#2 354531299#6 234286744#0 234286744#1 234286744#2 234286744#3 234286744#4 759785847#0 759785847#1 759785847#2 759785847#3 759785847#4 759785847#5 759785847#6 759785842#3 759785842#4 759785842#5 759785842#6 759785842#7 759785842#8 759785842#9 759785842#10 314517085 843452863 314517086 843452864#0 843452864#1 843452864#2 843452864#3 843452864#4 843452864#5 843452864#6 843452864#7 843452864#8 843452864#9 843452864#10 843452864#11 843452864#12 843452864#13 843452864#14 843452864#15 843452864#16 843452864#17 310919306 310919324#0 310919324#1 310919324#2 310919324#3 1238014769#0 354531765#0 354531765#1 354531765#2 354531765#3 -821278906 354534388 -213495495#4 -213495495#3 -213495495#2 -213495495#1 -213495495#0 213495544#3"/>
    </vehicle>
    <vehicle id="91" type="car" depart="91.00">
        <route edges="825738373#0 213495407#2 213495407#3 213495407#4 213495407#5 213495544#1 213495544#2 213495495#0 213495495#1 213495495#2 213495495#3 213495495#4 -354534388 821278906 -354531765#3 -354531765#2 -354531765#1 846804614#1 702376526#0 1231032837 311690841#27 311690841#28 311690841#29 311690841#30 311690841#31 702376527#0 1124099555 310919302#1 119710741#0 119710741#1 119710741#2 119710741#3 119710741#4 119710741#5 119710741#6 119710741#7 119710741#8 119710741#9 119710741#10 119710741#11 119710741#12 119710741#13 119710741#14 119710741#15 119710741#16 119710741#17 119710741#18 119710741#19 119710741#20 119710741#21 -354532004#3 839555248 310919302#7 310919302#8 310919302#9 310919302#10 310919302#11 843452862#0 843452862#1 1178128132#0 1178128132#1 1178128132#2 1178128132#3 1178128132#4 1178128132#5 1178128132#6 1178128132#7 1178128132#8 1178128132#9 1178128132#10 718369276#0 718369276#1 718369276#2 718369276#3 718446020 234286750#4 234286750#5 234286750#6 234286750#7 234286750#8 234286750#9 234286750#10 234286750#11 234286750#12 234286750#13 234286750#14 234286750#15 234286750#16 234286750#17 234286750#18 234286750#19 711570658 1178168899#0 1178168899#1 313513166#0 313513166#1 313513166#2 563861744 313514734#3 313514734#4 -152772016#9 -152772016#8 -152772016#7 -152772016#6 -152772695"/>
    </vehicle>
    <vehicle id="92" type="car" depart="92.00">
        <route edges="-51761139#1 416131627#2 416131627#3 416131627#4 416131627#5 416131627#6 416131627#7 416131627#8 416131627#9 416131627#10 416131627#11 416131627#12 416131627#13 416131627#14 416131627#15 416131627#16 416131627#17 416131627#18 -1288248183 1203853288#1 -1189455395 310919322#2 310919322#3 310919322#4 310919322#5 310919322#6 310919322#7 310919322#8 311690841#0 311690841#1 311690841#2 311690841#3 311690841#4 1270806707#0 1270806707#1 1270806707#2 1270806707#3 1270806707#4 1270806707#5 1270806707#6 1270806707#7 1270806707#8 1270806707#9 -158326986#14 -158326986#13 -158326986#12 -158326986#11 -158326986#10 -158326986#9 -158326986#8 -158326986#7 -158326986#6 -158326986#5 -158326986#4 -158326986#3 -158326986#2 -158326986#1 -158326986#0 -1160125864#4 -1160125864#3 -1160125864#2 -1160125864#1 -1160125864#0 -213514701#10 -213514701#9 -213514701#8 -213514701#7 -213514701#6 -213514701#5 -213514701#4 -213514701#3 -213514701#2 -213514701#1 -213514701#0 -824843022#8 -824843022#7 -824843022#6 -824843022#5 -824843022#4 -824843022#3 -824843022#2 -824843022#1 -824843022#0 354538252#0 354538252#1 354538252#2 -419157838#0 -419157839#1 -213514710#0 213514899#1 -1293613855#0 119922955#3 119922955#4 119922955#5 119922955#6 119922955#7 119710741#7 119710741#8 119710741#9 119710741#10 119710741#11 119710741#12 119710741#13 119710741#14 119710741#15 119710741#16 119710741#17 119710741#18 119710741#19 119710741#20 119710741#21 119710741#22 119710741#23 310921265#1 310922593 310922596#0 310922596#1 310922596#2 310922596#3 310922596#4 310922596#5 310922596#6 310922596#7 -656507061 310922592#2 310922592#3 310922592#4 310922592#5 310922592#6 310922592#7 -363171338#16 -363171338#15 -363171338#14 -363171338#13 -363171338#12 -363171338#11 -363171338#10 -363171338#9"/>
    </vehicle>
    <vehicle id="93" type="car" depart="93.00">
        <route edges="363171338#1 363171338#2 363171338#3 363171338#4 363171338#5 363171338#6 363171338#7 363171338#8 363171338#9 363171338#10 363171338#11 363171338#12 363171338#13 363171338#14 363171338#15 363171338#16 310922592#8 310922592#9 843452855#0 843452855#1 843452856#1 843452857#0 843452857#1 310922593 -213514824#2 -213514829#0 -119710741#23 -119710741#22 -119710741#21 -119710741#20 -119710741#19 -119710741#18 -119710741#17 -119710741#16 -119710741#15 -119710741#14 -119710741#13 -119710741#12 -119710741#11 -119710741#10 -119710741#9 -119710741#8 -119710741#7 -119922955#7 -119922955#6 -119922955#5 -119922955#4 -119922955#3 1293613855#0 -213514899#1 213514710#0 419157839#1 419157838#0 -354538252#2 -354538252#1 -354538252#0 824843022#0 824843022#1 824843022#2 824843022#3 824843022#4 824843022#5 824843022#6 824843022#7 824843022#8 213514701#0 213514701#1 213514701#2 213514701#3 213514701#4 213514701#5 213514701#6 213514701#7 213514701#8 213514701#9 213514701#10 1160125864#0 1160125864#1 1160125864#2 1160125864#3 1160125864#4 158326986#0 158326986#1 158326986#2 158326986#3 158326986#4 158326986#5 158326986#6 158326986#7 158326986#8 158326986#9 158326986#10 158326986#11 158326986#12 158326986#13 158326986#14 -1270806707#9 -1270806707#8 -1270806707#7 -1270806707#6 -1270806707#5 -1270806707#4 -1270806707#3 -1270806707#2 -1270806707#1 -158331244#4 -158331244#3 -158331244#2 158331245#2 311690841#1 1240071817 1203856052#11 1203856052#12 310904466#0 310904466#1 310904466#2 310904466#3 310904466#4 310904466#5 310904466#6 310904466#7 1203853288#0 1288248183 -416131627#18 -416131627#17 -416131627#16 -416131627#15 -416131627#14 -416131627#13 -416131627#12 -416131627#11 -416131627#10 -416131627#9 -416131627#8 -416131627#7 -416131627#6 -416131627#5 -416131627#4 -416131627#3 -416131627#2 -416131627#1 -416131627#0 1288248182 1225372232 1288243227#0 1288243227#1 1288239529 -1288239524 1288239525 665835970#2 1288243222 1288243221#0 1288243221#1 -419196424#1 -419196424#0 -51761231#3 213135155#0 213135155#1 213135155#2 213135155#3 213135155#4 -E13 -E11 -E9 369985674 694965012#0 694965012#1 694965012#2 -418948319#8 -418948319#7 -418948319#6 -418948319#5 -418948319#4 -418948319#3 -418948319#2 -418948319#1 -271447017#1 -271447017#0"/>
    </vehicle>
    <vehicle id="94" type="car" depart="94.00">
        <route edges="-213156274#2 -52014999#0 1271676504 759785842#8 759785842#9 759785842#10 843452856#0 843452856#1 843452857#0 843452857#1 310922593 -213514824#2 -213514829#0 -119710741#23 -119710741#22 -119710741#21 -119710741#20 -119710741#19 -119710741#18 -119710741#17 -119710741#16 -119710741#15 -119710741#14 -119710741#13 -119710741#12 -119710741#11 -119710741#10 -119710741#9 -119710741#8 -119710741#7 -119922955#7 -119922955#6 -119922955#5 -119922955#4 -119922955#3 1293613855#0 -213514899#1 213514710#0 419157839#1 419157838#0 -354538252#2 -354538252#1 -354538252#0 824843022#0 824843022#1 824843022#2 824843022#3 824843022#4 824843022#5 824843022#6 824843022#7 824843022#8 213514701#0 213514701#1 213514701#2 213514701#3 213514701#4 213514701#5 213514701#6 213514701#7 213514701#8 213514701#9 213514701#10 1160125864#0 1160125864#1 1160125864#2 1160125864#3"/>
    </vehicle>
    <vehicle id="95" type="car" depart="95.00">
        <route edges="-694965029#4 -694965029#3 -694965029#2 -694965029#1 -694965029#0 -212725684#5 -212725684#4 -212725684#3 -212725684#2 -212725684#1 -212725684#0 708208470#5 1225372230 1225372231#0 1225372231#1 1224762944 665835970#0 1288239522 1288239526 1288239524 1288239527 31608203#0 31608203#1 442738026 665835668#0 665835668#1 665835668#2 31608208 31608236#0 31608236#1 31608236#2 -31611066#5 -31611066#4 31611055#3 -31611109#1"/>
    </vehicle>
    <vehicle id="96" type="car" depart="96.00">
        <route edges="-215516524#1 419161151#1 215516625#1 215516625#2 215516625#3 215516625#4 354531299#3 354531299#4 354531299#5 354531299#6 234286744#0 1272959420 234286750#7 234286750#8 234286750#9 234286750#10 234286750#11 234286750#12 234286750#13 234286750#14 234286750#15 234286750#16 234286750#17 234286750#18 234286750#19 711570658 1178168899#0 1178168899#1 313513166#0 313513166#1 313513166#2 313513166#3 313513166#4 313513166#5 315567259#0 315567259#1 315567259#2 315567259#3 315567259#4 563587941#0 563587941#1 563587941#2 563587941#3 563587941#4 563587941#5 52015024#0 52015024#1 52015024#2 52015024#3 52015024#4 52015024#5 52015024#6 52015024#7 1275226720 1115116425#1 1115116425#2 1115116425#3 354536674#2 563795196#5"/>
    </vehicle>
    <vehicle id="97" type="car" depart="97.00">
        <route edges="-824830126 824830127 728950081 213135426#2 -213135732#3 -213135732#2 -213135732#1 -213135732#0 -825814008 -825814009 -1160123731#1 -1160123731#0 314361101#1 314361101#2 314361101#3 314361101#4 314361101#5 314361101#6 314361101#7 314361101#8 314361101#9 -213135718#0 -420684138#1 -418953176 -213135685#9 -213135652#3 213135202#6 213135202#7 369985681 369985672#0 369985672#1 369985672#2 369985672#3 -391132877#8 -391132877#7 -391132877#6 -391132877#5 391132877#5"/>
    </vehicle>
    <vehicle id="98" type="car" depart="98.00">
        <route edges="129393871#4 1202728446#0 1202728446#1 1202728446#2 1202728447 1202728444#0 1202728444#1 1188018344#0 1188018344#1 1188018344#2 1188018344#3 1188018344#4 1188018344#5 1188018344#6 563587941#0 563587941#1 563863442 563587939#2 563587939#3 313513163 313514734#0 313514734#1 313514734#2 313514734#3 313514734#4 -152772016#9 -152772016#8 -152772016#7 -152772016#6 -152772016#5 -152772016#4 -152772016#3 -152772016#2 -152772016#1 -1218450888"/>
    </vehicle>
    <vehicle id="99" type="car" depart="99.00">
        <route edges="E5 E6 -819303681 -213135170#4 -213135170#3 -213135170#2 213135603#0 213135603#1 213135603#2 1272695487#1 1238504010#0 1238504010#1 -419196407 -314361101#3 -314361101#2 -314361101#1 1160123731#0 1160123731#1 694965020 -1288248181 310919322#3 310919322#4 310919322#5 310919322#6 310919322#7 310919322#8 311690841#0 311690841#1 311690841#2 311690841#3 311690841#4 1270806707#0 1270806707#1 1270806707#2 1270806707#3 1270806707#4 1270806707#5 1270806707#6 1270806707#7 1270806707#8 1270806707#9 -158326986#14 -158326986#13 -158326986#12 -158326986#11 -158326986#10 -158326986#9 -158326986#8 -158326986#7 -158326986#6 -158326986#5 -158326986#4 -158326986#3 -158326986#2 -158326986#1 -158326986#0 -1160125864#4 -1160125864#3 -1160125864#2 -1160125864#1 -1160125864#0 -213514701#10 -213514701#9 -213514701#8 -213514701#7 -213514701#6 -213514701#5 -213514701#4 -213514701#3 -213514701#2 -213514701#1 -213514701#0 -824843022#8 -824843022#7 -824843022#6 -824843022#5 -824843022#4 -824843022#3 -824843022#2 -824843022#1 -824843022#0 354538252#0 354538252#1 354538252#2 -419157838#0 -419157839#1 -213514710#0 213514899#1 -1293613855#0 119922955#3 119922955#4 119922955#5 119922955#6 119922955#7 119710741#7 119710741#8 119710741#9 119710741#10 119710741#11 119710741#12 119710741#13 119710741#14 119710741#15 119710741#16 119710741#17 119710741#18 119710741#19 119710741#20 119710741#21 -354532004#3 839555248 310919302#7 310919302#8 310919302#9 310919302#10 310919302#11 843452862#0 843452862#1 1178128132#0 1178128132#1 1178128132#2 1178128132#3 1178128132#4 1178128132#5 1178128132#6 1178128132#7 1178128132#8 1178128132#9 1178128132#10 718369276#0 718369276#1 718369276#2 718369276#3 718446020 234286750#4 234286750#5 234286750#6 234286750#7 234286750#8 234286750#9 234286750#10 234286750#11 234286750#12 234286750#13 234286750#14 234286750#15 234286750#16 1272670479 362161865#5 354532758#0 152774548#1 711570551#1 711570551#2 152969394#0 152969394#1 152969394#2 1274011217 970837497#2 970837496#0 970837496#1 970837496#2 -354533300 -152773095#5 -152773095#4 -152773095#3 -152773095#2 152773038#2 354536182"/>
    </vehicle>
</routes>
