version 2
run Default-0-20250605-10:00:00-19772
attr configname Default
attr datetime 20250605-10:00:00
attr experiment Default
attr inifile omnetpp.ini
attr iterationvars ""
attr iterationvarsf ""
attr measurement ""
attr network RSUExampleScenario
attr processid 19772
attr repetition 0
attr replication #0
attr resultdir results
attr runnumber 0
attr seedset 0
param *.playgroundSizeX 12916.18m
param *.playgroundSizeY 3741.65m
param *.playgroundSizeZ 50m
param *.annotations.draw true
param *.manager.host "\"localhost\""
param *.manager.port 9999
param *.manager.autoShutdown true
param *.manager.order 1
param *.manager.updateInterval 1s
param *.manager.trafficLightModuleType "\"org.car2x.veins.nodes.TrafficLight\""
param *.tls[*].mobility.x 0
param *.tls[*].mobility.y 0
param *.tls[*].mobility.z 3
param *.tls[*].applType "\"org.car2x.veins.modules.application.traci.TraCIDemoTrafficLightApp\""
param *.tls[*].logicType "\"org.car2x.veins.modules.world.traci.trafficLight.logics.TraCITrafficLightSimpleLogic\""
param *.rsu[0].mobility.x 6315.91
param *.rsu[0].mobility.y 2125.00
param *.rsu[0].mobility.z 3
param *.rsu[*].applType "\"TraCIDemoRSU11p\""
param *.rsu[*].appl.headerLength "80 bit"
param *.rsu[*].appl.sendBeacons false
param *.rsu[*].appl.dataOnSch false
param *.rsu[*].appl.beaconInterval 1s
param *.rsu[*].appl.beaconUserPriority 7
param *.rsu[*].appl.dataUserPriority 5
param *.rsu[*].nic.phy80211p.antennaOffsetZ "0 m"
param *.rsu2[0].mobility.x 12916.18
param *.rsu2[0].mobility.y 3741.65
param *.rsu2[0].mobility.z 3
param *.rsu2[*].applType "\"TraCIDemoRSU11p\""
param *.rsu2[*].appl.headerLength "80 bit"
param *.rsu2[*].appl.sendBeacons false
param *.rsu2[*].appl.dataOnSch false
param *.rsu2[*].appl.beaconInterval 1s
param *.rsu2[*].appl.beaconUserPriority 7
param *.rsu2[*].appl.dataUserPriority 5
param *.rsu2[*].nic.phy80211p.antennaOffsetZ "0 m"
param *.rsu3[0].mobility.x 7415.91
param *.rsu3[0].mobility.y 1850.00
param *.rsu3[0].mobility.z 3
param *.rsu3[*].applType "\"TraCIDemoRSU11p\""
param *.rsu3[*].appl.headerLength "80 bit"
param *.rsu3[*].appl.sendBeacons false
param *.rsu3[*].appl.dataOnSch false
param *.rsu3[*].appl.beaconInterval 1s
param *.rsu3[*].appl.beaconUserPriority 7
param *.rsu3[*].appl.dataUserPriority 5
param *.rsu3[*].nic.phy80211p.antennaOffsetZ "0 m"
param *.rsu4[0].mobility.x 11075.6
param *.rsu4[0].mobility.y 1900.00
param *.rsu4[0].mobility.z 3
param *.rsu4[*].applType "\"TraCIDemoRSU11p\""
param *.rsu4[*].appl.headerLength "80 bit"
param *.rsu4[*].appl.sendBeacons false
param *.rsu4[*].appl.dataOnSch false
param *.rsu4[*].appl.beaconInterval 1s
param *.rsu4[*].appl.beaconUserPriority 7
param *.rsu4[*].appl.dataUserPriority 5
param *.rsu4[*].nic.phy80211p.antennaOffsetZ "0 m"
param *.rsu5[0].mobility.x 4605.00
param *.rsu5[0].mobility.y 1970.00
param *.rsu5[0].mobility.z 3
param *.rsu5[*].applType "\"TraCIDemoRSU11p\""
param *.rsu5[*].appl.headerLength "80 bit"
param *.rsu5[*].appl.sendBeacons false
param *.rsu5[*].appl.dataOnSch false
param *.rsu5[*].appl.beaconInterval 1s
param *.rsu5[*].appl.beaconUserPriority 7
param *.rsu5[*].appl.dataUserPriority 5
param *.rsu5[*].nic.phy80211p.antennaOffsetZ "0 m"
param *.rsu6[0].mobility.x 2070.91
param *.rsu6[0].mobility.y 1750.00
param *.rsu6[0].mobility.z 3
param *.rsu6[*].applType "\"TraCIDemoRSU11p\""
param *.rsu6[*].appl.headerLength "80 bit"
param *.rsu6[*].appl.sendBeacons false
param *.rsu6[*].appl.dataOnSch false
param *.rsu6[*].appl.beaconInterval 1s
param *.rsu6[*].appl.beaconUserPriority 7
param *.rsu6[*].appl.dataUserPriority 5
param *.rsu6[*].nic.phy80211p.antennaOffsetZ "0 m"
param *.rsu8[0].mobility.x 2739.00
param *.rsu8[0].mobility.y 1975.00
param *.rsu8[0].mobility.z 3
param *.rsu8[*].applType "\"TraCIDemoRSU11p\""
param *.rsu8[*].appl.headerLength "80 bit"
param *.rsu8[*].appl.sendBeacons false
param *.rsu8[*].appl.dataOnSch false
param *.rsu8[*].appl.beaconInterval 1s
param *.rsu8[*].appl.beaconUserPriority 7
param *.rsu8[*].appl.dataUserPriority 5
param *.rsu8[*].nic.phy80211p.antennaOffsetZ "0 m"
param *.rsu9[0].mobility.x 3685.99
param *.rsu9[0].mobility.y 1985.89
param *.rsu9[0].mobility.z 3
param *.rsu9[*].applType "\"TraCIDemoRSU11p\""
param *.rsu9[*].appl.headerLength "80 bit"
param *.rsu9[*].appl.sendBeacons false
param *.rsu9[*].appl.dataOnSch false
param *.rsu9[*].appl.beaconInterval 1s
param *.rsu9[*].appl.beaconUserPriority 7
param *.rsu9[*].appl.dataUserPriority 5
param *.rsu9[*].nic.phy80211p.antennaOffsetZ "0 m"
param *.connectionManager.sendDirect true
param *.connectionManager.maxInterfDist 2600m
param *.connectionManager.drawMaxIntfDist false
param *.**.nic.mac1609_4.useServiceChannel false
param *.**.nic.mac1609_4.txPower 20mW
param *.**.nic.mac1609_4.bitrate 6Mbps
param *.**.nic.phy80211p.minPowerLevel -110dBm
param *.**.nic.phy80211p.useNoiseFloor true
param *.**.nic.phy80211p.noiseFloor -98dBm
param *.**.nic.phy80211p.decider "xmldoc(\"config.xml\")"
param *.**.nic.phy80211p.analogueModels "xmldoc(\"config.xml\")"
param *.**.nic.phy80211p.usePropagationDelay true
param *.**.nic.phy80211p.antenna "xmldoc(\"antenna.xml\", \"/root/Antenna[@id='monopole']\")"
param *.node[*].nic.phy80211p.antennaOffsetY "0 m"
param *.node[*].nic.phy80211p.antennaOffsetZ "1.895 m"
param *.node[*].applType "\"TraCIDemo11p\""
param *.node[*].appl.headerLength "80 bit"
param *.node[88].appl.sendBeacons true
param *.node[*].appl.sendBeacons false
param *.node[*].appl.dataOnSch false
param *.node[*].appl.beaconInterval 1s
param *.node[*].veinsmobility.x 0
param *.node[*].veinsmobility.y 0
param *.node[*].veinsmobility.z 0
param *.node[*].veinsmobility.setHostSpeed false
param *.node[*].veinsmobility.accidentCount 0

scalar RSUExampleScenario.manager roiArea 0
scalar RSUExampleScenario.rsu[0].appl generatedWSMs 0
scalar RSUExampleScenario.rsu[0].appl receivedWSMs 0
scalar RSUExampleScenario.rsu[0].appl generatedBSMs 0
scalar RSUExampleScenario.rsu[0].appl receivedBSMs 0
scalar RSUExampleScenario.rsu[0].appl generatedWSAs 0
scalar RSUExampleScenario.rsu[0].appl receivedWSAs 0
scalar RSUExampleScenario.rsu[0].nic.phy80211p busyTime 0
scalar RSUExampleScenario.rsu[0].nic.mac1609_4 ReceivedUnicastPackets 0
scalar RSUExampleScenario.rsu[0].nic.mac1609_4 ReceivedBroadcasts 0
scalar RSUExampleScenario.rsu[0].nic.mac1609_4 SentPackets 0
scalar RSUExampleScenario.rsu[0].nic.mac1609_4 SentAcknowledgements 0
scalar RSUExampleScenario.rsu[0].nic.mac1609_4 RetriesExceeded 0
scalar RSUExampleScenario.rsu[0].nic.mac1609_4 SNIRLostPackets 0
scalar RSUExampleScenario.rsu[0].nic.mac1609_4 RXTXLostPackets 0
scalar RSUExampleScenario.rsu[0].nic.mac1609_4 TotalLostPackets 0
scalar RSUExampleScenario.rsu[0].nic.mac1609_4 DroppedPacketsInMac 0
scalar RSUExampleScenario.rsu[0].nic.mac1609_4 TooLittleTime 0
scalar RSUExampleScenario.rsu[0].nic.mac1609_4 TimesIntoBackoff 0
scalar RSUExampleScenario.rsu[0].nic.mac1609_4 SlotsBackoff 0
scalar RSUExampleScenario.rsu[0].nic.mac1609_4 NumInternalContention 0
scalar RSUExampleScenario.rsu[0].nic.mac1609_4 totalBusyTime 0
scalar RSUExampleScenario.rsu[0].nic.mac1609_4 retriesExceeded:count 0
attr source org_car2x_veins_modules_mac_sigRetriesExceeded
scalar RSUExampleScenario.rsu[0].nic.mac1609_4 sentAcks:count 0
attr source org_car2x_veins_modules_mac_sigSentAck
scalar RSUExampleScenario.rsu[0].nic.mac1609_4 sentPackets:count 0
attr source org_car2x_veins_modules_mac_sigSentPacket
scalar RSUExampleScenario.rsu[0].nic.mac1609_4 collisions:count 0
attr source org_car2x_veins_modules_mac_sigCollision
scalar RSUExampleScenario.rsu[0].nic.mac1609_4 channelBusy:timeavg 0
attr source org_car2x_veins_modules_mac_sigChannelBusy
scalar RSUExampleScenario.rsu2[0].appl generatedWSMs 0
scalar RSUExampleScenario.rsu2[0].appl receivedWSMs 0
scalar RSUExampleScenario.rsu2[0].appl generatedBSMs 0
scalar RSUExampleScenario.rsu2[0].appl receivedBSMs 0
scalar RSUExampleScenario.rsu2[0].appl generatedWSAs 0
scalar RSUExampleScenario.rsu2[0].appl receivedWSAs 0
scalar RSUExampleScenario.rsu2[0].nic.phy80211p busyTime 0
scalar RSUExampleScenario.rsu2[0].nic.mac1609_4 ReceivedUnicastPackets 0
scalar RSUExampleScenario.rsu2[0].nic.mac1609_4 ReceivedBroadcasts 0
scalar RSUExampleScenario.rsu2[0].nic.mac1609_4 SentPackets 0
scalar RSUExampleScenario.rsu2[0].nic.mac1609_4 SentAcknowledgements 0
scalar RSUExampleScenario.rsu2[0].nic.mac1609_4 RetriesExceeded 0
scalar RSUExampleScenario.rsu2[0].nic.mac1609_4 SNIRLostPackets 0
scalar RSUExampleScenario.rsu2[0].nic.mac1609_4 RXTXLostPackets 0
scalar RSUExampleScenario.rsu2[0].nic.mac1609_4 TotalLostPackets 0
scalar RSUExampleScenario.rsu2[0].nic.mac1609_4 DroppedPacketsInMac 0
scalar RSUExampleScenario.rsu2[0].nic.mac1609_4 TooLittleTime 0
scalar RSUExampleScenario.rsu2[0].nic.mac1609_4 TimesIntoBackoff 0
scalar RSUExampleScenario.rsu2[0].nic.mac1609_4 SlotsBackoff 0
scalar RSUExampleScenario.rsu2[0].nic.mac1609_4 NumInternalContention 0
scalar RSUExampleScenario.rsu2[0].nic.mac1609_4 totalBusyTime 0
scalar RSUExampleScenario.rsu2[0].nic.mac1609_4 retriesExceeded:count 0
attr source org_car2x_veins_modules_mac_sigRetriesExceeded
scalar RSUExampleScenario.rsu2[0].nic.mac1609_4 sentAcks:count 0
attr source org_car2x_veins_modules_mac_sigSentAck
scalar RSUExampleScenario.rsu2[0].nic.mac1609_4 sentPackets:count 0
attr source org_car2x_veins_modules_mac_sigSentPacket
scalar RSUExampleScenario.rsu2[0].nic.mac1609_4 collisions:count 0
attr source org_car2x_veins_modules_mac_sigCollision
scalar RSUExampleScenario.rsu2[0].nic.mac1609_4 channelBusy:timeavg 0
attr source org_car2x_veins_modules_mac_sigChannelBusy
scalar RSUExampleScenario.rsu3[0].appl generatedWSMs 0
scalar RSUExampleScenario.rsu3[0].appl receivedWSMs 0
scalar RSUExampleScenario.rsu3[0].appl generatedBSMs 0
scalar RSUExampleScenario.rsu3[0].appl receivedBSMs 0
scalar RSUExampleScenario.rsu3[0].appl generatedWSAs 0
scalar RSUExampleScenario.rsu3[0].appl receivedWSAs 0
scalar RSUExampleScenario.rsu3[0].nic.phy80211p busyTime 0
scalar RSUExampleScenario.rsu3[0].nic.mac1609_4 ReceivedUnicastPackets 0
scalar RSUExampleScenario.rsu3[0].nic.mac1609_4 ReceivedBroadcasts 0
scalar RSUExampleScenario.rsu3[0].nic.mac1609_4 SentPackets 0
scalar RSUExampleScenario.rsu3[0].nic.mac1609_4 SentAcknowledgements 0
scalar RSUExampleScenario.rsu3[0].nic.mac1609_4 RetriesExceeded 0
scalar RSUExampleScenario.rsu3[0].nic.mac1609_4 SNIRLostPackets 0
scalar RSUExampleScenario.rsu3[0].nic.mac1609_4 RXTXLostPackets 0
scalar RSUExampleScenario.rsu3[0].nic.mac1609_4 TotalLostPackets 0
scalar RSUExampleScenario.rsu3[0].nic.mac1609_4 DroppedPacketsInMac 0
scalar RSUExampleScenario.rsu3[0].nic.mac1609_4 TooLittleTime 0
scalar RSUExampleScenario.rsu3[0].nic.mac1609_4 TimesIntoBackoff 0
scalar RSUExampleScenario.rsu3[0].nic.mac1609_4 SlotsBackoff 0
scalar RSUExampleScenario.rsu3[0].nic.mac1609_4 NumInternalContention 0
scalar RSUExampleScenario.rsu3[0].nic.mac1609_4 totalBusyTime 0
scalar RSUExampleScenario.rsu3[0].nic.mac1609_4 retriesExceeded:count 0
attr source org_car2x_veins_modules_mac_sigRetriesExceeded
scalar RSUExampleScenario.rsu3[0].nic.mac1609_4 sentAcks:count 0
attr source org_car2x_veins_modules_mac_sigSentAck
scalar RSUExampleScenario.rsu3[0].nic.mac1609_4 sentPackets:count 0
attr source org_car2x_veins_modules_mac_sigSentPacket
scalar RSUExampleScenario.rsu3[0].nic.mac1609_4 collisions:count 0
attr source org_car2x_veins_modules_mac_sigCollision
scalar RSUExampleScenario.rsu3[0].nic.mac1609_4 channelBusy:timeavg 0
attr source org_car2x_veins_modules_mac_sigChannelBusy
scalar RSUExampleScenario.rsu4[0].appl generatedWSMs 0
scalar RSUExampleScenario.rsu4[0].appl receivedWSMs 0
scalar RSUExampleScenario.rsu4[0].appl generatedBSMs 0
scalar RSUExampleScenario.rsu4[0].appl receivedBSMs 0
scalar RSUExampleScenario.rsu4[0].appl generatedWSAs 0
scalar RSUExampleScenario.rsu4[0].appl receivedWSAs 0
scalar RSUExampleScenario.rsu4[0].nic.phy80211p busyTime 0
scalar RSUExampleScenario.rsu4[0].nic.mac1609_4 ReceivedUnicastPackets 0
scalar RSUExampleScenario.rsu4[0].nic.mac1609_4 ReceivedBroadcasts 0
scalar RSUExampleScenario.rsu4[0].nic.mac1609_4 SentPackets 0
scalar RSUExampleScenario.rsu4[0].nic.mac1609_4 SentAcknowledgements 0
scalar RSUExampleScenario.rsu4[0].nic.mac1609_4 RetriesExceeded 0
scalar RSUExampleScenario.rsu4[0].nic.mac1609_4 SNIRLostPackets 0
scalar RSUExampleScenario.rsu4[0].nic.mac1609_4 RXTXLostPackets 0
scalar RSUExampleScenario.rsu4[0].nic.mac1609_4 TotalLostPackets 0
scalar RSUExampleScenario.rsu4[0].nic.mac1609_4 DroppedPacketsInMac 0
scalar RSUExampleScenario.rsu4[0].nic.mac1609_4 TooLittleTime 0
scalar RSUExampleScenario.rsu4[0].nic.mac1609_4 TimesIntoBackoff 0
scalar RSUExampleScenario.rsu4[0].nic.mac1609_4 SlotsBackoff 0
scalar RSUExampleScenario.rsu4[0].nic.mac1609_4 NumInternalContention 0
scalar RSUExampleScenario.rsu4[0].nic.mac1609_4 totalBusyTime 0
scalar RSUExampleScenario.rsu4[0].nic.mac1609_4 retriesExceeded:count 0
attr source org_car2x_veins_modules_mac_sigRetriesExceeded
scalar RSUExampleScenario.rsu4[0].nic.mac1609_4 sentAcks:count 0
attr source org_car2x_veins_modules_mac_sigSentAck
scalar RSUExampleScenario.rsu4[0].nic.mac1609_4 sentPackets:count 0
attr source org_car2x_veins_modules_mac_sigSentPacket
scalar RSUExampleScenario.rsu4[0].nic.mac1609_4 collisions:count 0
attr source org_car2x_veins_modules_mac_sigCollision
scalar RSUExampleScenario.rsu4[0].nic.mac1609_4 channelBusy:timeavg 0
attr source org_car2x_veins_modules_mac_sigChannelBusy
scalar RSUExampleScenario.rsu5[0].appl generatedWSMs 0
scalar RSUExampleScenario.rsu5[0].appl receivedWSMs 0
scalar RSUExampleScenario.rsu5[0].appl generatedBSMs 0
scalar RSUExampleScenario.rsu5[0].appl receivedBSMs 0
scalar RSUExampleScenario.rsu5[0].appl generatedWSAs 0
scalar RSUExampleScenario.rsu5[0].appl receivedWSAs 0
scalar RSUExampleScenario.rsu5[0].nic.phy80211p busyTime 0
scalar RSUExampleScenario.rsu5[0].nic.mac1609_4 ReceivedUnicastPackets 0
scalar RSUExampleScenario.rsu5[0].nic.mac1609_4 ReceivedBroadcasts 0
scalar RSUExampleScenario.rsu5[0].nic.mac1609_4 SentPackets 0
scalar RSUExampleScenario.rsu5[0].nic.mac1609_4 SentAcknowledgements 0
scalar RSUExampleScenario.rsu5[0].nic.mac1609_4 RetriesExceeded 0
scalar RSUExampleScenario.rsu5[0].nic.mac1609_4 SNIRLostPackets 0
scalar RSUExampleScenario.rsu5[0].nic.mac1609_4 RXTXLostPackets 0
scalar RSUExampleScenario.rsu5[0].nic.mac1609_4 TotalLostPackets 0
scalar RSUExampleScenario.rsu5[0].nic.mac1609_4 DroppedPacketsInMac 0
scalar RSUExampleScenario.rsu5[0].nic.mac1609_4 TooLittleTime 0
scalar RSUExampleScenario.rsu5[0].nic.mac1609_4 TimesIntoBackoff 0
scalar RSUExampleScenario.rsu5[0].nic.mac1609_4 SlotsBackoff 0
scalar RSUExampleScenario.rsu5[0].nic.mac1609_4 NumInternalContention 0
scalar RSUExampleScenario.rsu5[0].nic.mac1609_4 totalBusyTime 0
scalar RSUExampleScenario.rsu5[0].nic.mac1609_4 retriesExceeded:count 0
attr source org_car2x_veins_modules_mac_sigRetriesExceeded
scalar RSUExampleScenario.rsu5[0].nic.mac1609_4 sentAcks:count 0
attr source org_car2x_veins_modules_mac_sigSentAck
scalar RSUExampleScenario.rsu5[0].nic.mac1609_4 sentPackets:count 0
attr source org_car2x_veins_modules_mac_sigSentPacket
scalar RSUExampleScenario.rsu5[0].nic.mac1609_4 collisions:count 0
attr source org_car2x_veins_modules_mac_sigCollision
scalar RSUExampleScenario.rsu5[0].nic.mac1609_4 channelBusy:timeavg 0
attr source org_car2x_veins_modules_mac_sigChannelBusy
scalar RSUExampleScenario.rsu6[0].appl generatedWSMs 0
scalar RSUExampleScenario.rsu6[0].appl receivedWSMs 0
scalar RSUExampleScenario.rsu6[0].appl generatedBSMs 0
scalar RSUExampleScenario.rsu6[0].appl receivedBSMs 0
scalar RSUExampleScenario.rsu6[0].appl generatedWSAs 0
scalar RSUExampleScenario.rsu6[0].appl receivedWSAs 0
scalar RSUExampleScenario.rsu6[0].nic.phy80211p busyTime 0
scalar RSUExampleScenario.rsu6[0].nic.mac1609_4 ReceivedUnicastPackets 0
scalar RSUExampleScenario.rsu6[0].nic.mac1609_4 ReceivedBroadcasts 0
scalar RSUExampleScenario.rsu6[0].nic.mac1609_4 SentPackets 0
scalar RSUExampleScenario.rsu6[0].nic.mac1609_4 SentAcknowledgements 0
scalar RSUExampleScenario.rsu6[0].nic.mac1609_4 RetriesExceeded 0
scalar RSUExampleScenario.rsu6[0].nic.mac1609_4 SNIRLostPackets 0
scalar RSUExampleScenario.rsu6[0].nic.mac1609_4 RXTXLostPackets 0
scalar RSUExampleScenario.rsu6[0].nic.mac1609_4 TotalLostPackets 0
scalar RSUExampleScenario.rsu6[0].nic.mac1609_4 DroppedPacketsInMac 0
scalar RSUExampleScenario.rsu6[0].nic.mac1609_4 TooLittleTime 0
scalar RSUExampleScenario.rsu6[0].nic.mac1609_4 TimesIntoBackoff 0
scalar RSUExampleScenario.rsu6[0].nic.mac1609_4 SlotsBackoff 0
scalar RSUExampleScenario.rsu6[0].nic.mac1609_4 NumInternalContention 0
scalar RSUExampleScenario.rsu6[0].nic.mac1609_4 totalBusyTime 0
scalar RSUExampleScenario.rsu6[0].nic.mac1609_4 retriesExceeded:count 0
attr source org_car2x_veins_modules_mac_sigRetriesExceeded
scalar RSUExampleScenario.rsu6[0].nic.mac1609_4 sentAcks:count 0
attr source org_car2x_veins_modules_mac_sigSentAck
scalar RSUExampleScenario.rsu6[0].nic.mac1609_4 sentPackets:count 0
attr source org_car2x_veins_modules_mac_sigSentPacket
scalar RSUExampleScenario.rsu6[0].nic.mac1609_4 collisions:count 0
attr source org_car2x_veins_modules_mac_sigCollision
scalar RSUExampleScenario.rsu6[0].nic.mac1609_4 channelBusy:timeavg 0
attr source org_car2x_veins_modules_mac_sigChannelBusy
scalar RSUExampleScenario.rsu8[0].appl generatedWSMs 0
scalar RSUExampleScenario.rsu8[0].appl receivedWSMs 0
scalar RSUExampleScenario.rsu8[0].appl generatedBSMs 0
scalar RSUExampleScenario.rsu8[0].appl receivedBSMs 0
scalar RSUExampleScenario.rsu8[0].appl generatedWSAs 0
scalar RSUExampleScenario.rsu8[0].appl receivedWSAs 0
scalar RSUExampleScenario.rsu8[0].nic.phy80211p busyTime 0
scalar RSUExampleScenario.rsu8[0].nic.mac1609_4 ReceivedUnicastPackets 0
scalar RSUExampleScenario.rsu8[0].nic.mac1609_4 ReceivedBroadcasts 0
scalar RSUExampleScenario.rsu8[0].nic.mac1609_4 SentPackets 0
scalar RSUExampleScenario.rsu8[0].nic.mac1609_4 SentAcknowledgements 0
scalar RSUExampleScenario.rsu8[0].nic.mac1609_4 RetriesExceeded 0
scalar RSUExampleScenario.rsu8[0].nic.mac1609_4 SNIRLostPackets 0
scalar RSUExampleScenario.rsu8[0].nic.mac1609_4 RXTXLostPackets 0
scalar RSUExampleScenario.rsu8[0].nic.mac1609_4 TotalLostPackets 0
scalar RSUExampleScenario.rsu8[0].nic.mac1609_4 DroppedPacketsInMac 0
scalar RSUExampleScenario.rsu8[0].nic.mac1609_4 TooLittleTime 0
scalar RSUExampleScenario.rsu8[0].nic.mac1609_4 TimesIntoBackoff 0
scalar RSUExampleScenario.rsu8[0].nic.mac1609_4 SlotsBackoff 0
scalar RSUExampleScenario.rsu8[0].nic.mac1609_4 NumInternalContention 0
scalar RSUExampleScenario.rsu8[0].nic.mac1609_4 totalBusyTime 0
scalar RSUExampleScenario.rsu8[0].nic.mac1609_4 retriesExceeded:count 0
attr source org_car2x_veins_modules_mac_sigRetriesExceeded
scalar RSUExampleScenario.rsu8[0].nic.mac1609_4 sentAcks:count 0
attr source org_car2x_veins_modules_mac_sigSentAck
scalar RSUExampleScenario.rsu8[0].nic.mac1609_4 sentPackets:count 0
attr source org_car2x_veins_modules_mac_sigSentPacket
scalar RSUExampleScenario.rsu8[0].nic.mac1609_4 collisions:count 0
attr source org_car2x_veins_modules_mac_sigCollision
scalar RSUExampleScenario.rsu8[0].nic.mac1609_4 channelBusy:timeavg 0
attr source org_car2x_veins_modules_mac_sigChannelBusy
scalar RSUExampleScenario.rsu9[0].appl generatedWSMs 0
scalar RSUExampleScenario.rsu9[0].appl receivedWSMs 0
scalar RSUExampleScenario.rsu9[0].appl generatedBSMs 0
scalar RSUExampleScenario.rsu9[0].appl receivedBSMs 0
scalar RSUExampleScenario.rsu9[0].appl generatedWSAs 0
scalar RSUExampleScenario.rsu9[0].appl receivedWSAs 0
scalar RSUExampleScenario.rsu9[0].nic.phy80211p busyTime 0
scalar RSUExampleScenario.rsu9[0].nic.mac1609_4 ReceivedUnicastPackets 0
scalar RSUExampleScenario.rsu9[0].nic.mac1609_4 ReceivedBroadcasts 0
scalar RSUExampleScenario.rsu9[0].nic.mac1609_4 SentPackets 0
scalar RSUExampleScenario.rsu9[0].nic.mac1609_4 SentAcknowledgements 0
scalar RSUExampleScenario.rsu9[0].nic.mac1609_4 RetriesExceeded 0
scalar RSUExampleScenario.rsu9[0].nic.mac1609_4 SNIRLostPackets 0
scalar RSUExampleScenario.rsu9[0].nic.mac1609_4 RXTXLostPackets 0
scalar RSUExampleScenario.rsu9[0].nic.mac1609_4 TotalLostPackets 0
scalar RSUExampleScenario.rsu9[0].nic.mac1609_4 DroppedPacketsInMac 0
scalar RSUExampleScenario.rsu9[0].nic.mac1609_4 TooLittleTime 0
scalar RSUExampleScenario.rsu9[0].nic.mac1609_4 TimesIntoBackoff 0
scalar RSUExampleScenario.rsu9[0].nic.mac1609_4 SlotsBackoff 0
scalar RSUExampleScenario.rsu9[0].nic.mac1609_4 NumInternalContention 0
scalar RSUExampleScenario.rsu9[0].nic.mac1609_4 totalBusyTime 0
scalar RSUExampleScenario.rsu9[0].nic.mac1609_4 retriesExceeded:count 0
attr source org_car2x_veins_modules_mac_sigRetriesExceeded
scalar RSUExampleScenario.rsu9[0].nic.mac1609_4 sentAcks:count 0
attr source org_car2x_veins_modules_mac_sigSentAck
scalar RSUExampleScenario.rsu9[0].nic.mac1609_4 sentPackets:count 0
attr source org_car2x_veins_modules_mac_sigSentPacket
scalar RSUExampleScenario.rsu9[0].nic.mac1609_4 collisions:count 0
attr source org_car2x_veins_modules_mac_sigCollision
scalar RSUExampleScenario.rsu9[0].nic.mac1609_4 channelBusy:timeavg 0
attr source org_car2x_veins_modules_mac_sigChannelBusy
scalar RSUExampleScenario.tls[0].appl generatedWSMs 4291618039
scalar RSUExampleScenario.tls[0].appl receivedWSMs 4291618039
scalar RSUExampleScenario.tls[0].appl generatedBSMs 4291618039
scalar RSUExampleScenario.tls[0].appl receivedBSMs 4291618039
scalar RSUExampleScenario.tls[0].appl generatedWSAs 4291618039
scalar RSUExampleScenario.tls[0].appl receivedWSAs 4291618039
scalar RSUExampleScenario.tls[0].nic.phy80211p busyTime 0
scalar RSUExampleScenario.tls[0].nic.mac1609_4 ReceivedUnicastPackets 0
scalar RSUExampleScenario.tls[0].nic.mac1609_4 ReceivedBroadcasts 0
scalar RSUExampleScenario.tls[0].nic.mac1609_4 SentPackets 0
scalar RSUExampleScenario.tls[0].nic.mac1609_4 SentAcknowledgements 0
scalar RSUExampleScenario.tls[0].nic.mac1609_4 RetriesExceeded 0
scalar RSUExampleScenario.tls[0].nic.mac1609_4 SNIRLostPackets 0
scalar RSUExampleScenario.tls[0].nic.mac1609_4 RXTXLostPackets 0
scalar RSUExampleScenario.tls[0].nic.mac1609_4 TotalLostPackets 0
scalar RSUExampleScenario.tls[0].nic.mac1609_4 DroppedPacketsInMac 0
scalar RSUExampleScenario.tls[0].nic.mac1609_4 TooLittleTime 0
scalar RSUExampleScenario.tls[0].nic.mac1609_4 TimesIntoBackoff 0
scalar RSUExampleScenario.tls[0].nic.mac1609_4 SlotsBackoff 0
scalar RSUExampleScenario.tls[0].nic.mac1609_4 NumInternalContention 0
scalar RSUExampleScenario.tls[0].nic.mac1609_4 totalBusyTime 0
scalar RSUExampleScenario.tls[0].nic.mac1609_4 retriesExceeded:count 0
attr source org_car2x_veins_modules_mac_sigRetriesExceeded
scalar RSUExampleScenario.tls[0].nic.mac1609_4 sentAcks:count 0
attr source org_car2x_veins_modules_mac_sigSentAck
scalar RSUExampleScenario.tls[0].nic.mac1609_4 sentPackets:count 0
attr source org_car2x_veins_modules_mac_sigSentPacket
scalar RSUExampleScenario.tls[0].nic.mac1609_4 collisions:count 0
attr source org_car2x_veins_modules_mac_sigCollision
scalar RSUExampleScenario.tls[0].nic.mac1609_4 channelBusy:timeavg 0
attr source org_car2x_veins_modules_mac_sigChannelBusy
scalar RSUExampleScenario.tls[1].appl generatedWSMs 4291618039
scalar RSUExampleScenario.tls[1].appl receivedWSMs 4291618039
scalar RSUExampleScenario.tls[1].appl generatedBSMs 4291618039
scalar RSUExampleScenario.tls[1].appl receivedBSMs 4291618039
scalar RSUExampleScenario.tls[1].appl generatedWSAs 4291618039
scalar RSUExampleScenario.tls[1].appl receivedWSAs 4291618039
scalar RSUExampleScenario.tls[1].nic.phy80211p busyTime 0
scalar RSUExampleScenario.tls[1].nic.mac1609_4 ReceivedUnicastPackets 0
scalar RSUExampleScenario.tls[1].nic.mac1609_4 ReceivedBroadcasts 0
scalar RSUExampleScenario.tls[1].nic.mac1609_4 SentPackets 0
scalar RSUExampleScenario.tls[1].nic.mac1609_4 SentAcknowledgements 0
scalar RSUExampleScenario.tls[1].nic.mac1609_4 RetriesExceeded 0
scalar RSUExampleScenario.tls[1].nic.mac1609_4 SNIRLostPackets 0
scalar RSUExampleScenario.tls[1].nic.mac1609_4 RXTXLostPackets 0
scalar RSUExampleScenario.tls[1].nic.mac1609_4 TotalLostPackets 0
scalar RSUExampleScenario.tls[1].nic.mac1609_4 DroppedPacketsInMac 0
scalar RSUExampleScenario.tls[1].nic.mac1609_4 TooLittleTime 0
scalar RSUExampleScenario.tls[1].nic.mac1609_4 TimesIntoBackoff 0
scalar RSUExampleScenario.tls[1].nic.mac1609_4 SlotsBackoff 0
scalar RSUExampleScenario.tls[1].nic.mac1609_4 NumInternalContention 0
scalar RSUExampleScenario.tls[1].nic.mac1609_4 totalBusyTime 0
scalar RSUExampleScenario.tls[1].nic.mac1609_4 retriesExceeded:count 0
attr source org_car2x_veins_modules_mac_sigRetriesExceeded
scalar RSUExampleScenario.tls[1].nic.mac1609_4 sentAcks:count 0
attr source org_car2x_veins_modules_mac_sigSentAck
scalar RSUExampleScenario.tls[1].nic.mac1609_4 sentPackets:count 0
attr source org_car2x_veins_modules_mac_sigSentPacket
scalar RSUExampleScenario.tls[1].nic.mac1609_4 collisions:count 0
attr source org_car2x_veins_modules_mac_sigCollision
scalar RSUExampleScenario.tls[1].nic.mac1609_4 channelBusy:timeavg 0
attr source org_car2x_veins_modules_mac_sigChannelBusy
scalar RSUExampleScenario.tls[2].appl generatedWSMs 4291618039
scalar RSUExampleScenario.tls[2].appl receivedWSMs 4291618039
scalar RSUExampleScenario.tls[2].appl generatedBSMs 4291618039
scalar RSUExampleScenario.tls[2].appl receivedBSMs 4291618039
scalar RSUExampleScenario.tls[2].appl generatedWSAs 4291618039
scalar RSUExampleScenario.tls[2].appl receivedWSAs 4291618039
scalar RSUExampleScenario.tls[2].nic.phy80211p busyTime 0
scalar RSUExampleScenario.tls[2].nic.mac1609_4 ReceivedUnicastPackets 0
scalar RSUExampleScenario.tls[2].nic.mac1609_4 ReceivedBroadcasts 0
scalar RSUExampleScenario.tls[2].nic.mac1609_4 SentPackets 0
scalar RSUExampleScenario.tls[2].nic.mac1609_4 SentAcknowledgements 0
scalar RSUExampleScenario.tls[2].nic.mac1609_4 RetriesExceeded 0
scalar RSUExampleScenario.tls[2].nic.mac1609_4 SNIRLostPackets 0
scalar RSUExampleScenario.tls[2].nic.mac1609_4 RXTXLostPackets 0
scalar RSUExampleScenario.tls[2].nic.mac1609_4 TotalLostPackets 0
scalar RSUExampleScenario.tls[2].nic.mac1609_4 DroppedPacketsInMac 0
scalar RSUExampleScenario.tls[2].nic.mac1609_4 TooLittleTime 0
scalar RSUExampleScenario.tls[2].nic.mac1609_4 TimesIntoBackoff 0
scalar RSUExampleScenario.tls[2].nic.mac1609_4 SlotsBackoff 0
scalar RSUExampleScenario.tls[2].nic.mac1609_4 NumInternalContention 0
scalar RSUExampleScenario.tls[2].nic.mac1609_4 totalBusyTime 0
scalar RSUExampleScenario.tls[2].nic.mac1609_4 retriesExceeded:count 0
attr source org_car2x_veins_modules_mac_sigRetriesExceeded
scalar RSUExampleScenario.tls[2].nic.mac1609_4 sentAcks:count 0
attr source org_car2x_veins_modules_mac_sigSentAck
scalar RSUExampleScenario.tls[2].nic.mac1609_4 sentPackets:count 0
attr source org_car2x_veins_modules_mac_sigSentPacket
scalar RSUExampleScenario.tls[2].nic.mac1609_4 collisions:count 0
attr source org_car2x_veins_modules_mac_sigCollision
scalar RSUExampleScenario.tls[2].nic.mac1609_4 channelBusy:timeavg 0
attr source org_car2x_veins_modules_mac_sigChannelBusy
scalar RSUExampleScenario.tls[3].appl generatedWSMs 4291618039
scalar RSUExampleScenario.tls[3].appl receivedWSMs 4291618039
scalar RSUExampleScenario.tls[3].appl generatedBSMs 4291618039
scalar RSUExampleScenario.tls[3].appl receivedBSMs 4291618039
scalar RSUExampleScenario.tls[3].appl generatedWSAs 4291618039
scalar RSUExampleScenario.tls[3].appl receivedWSAs 4291618039
scalar RSUExampleScenario.tls[3].nic.phy80211p busyTime 0
scalar RSUExampleScenario.tls[3].nic.mac1609_4 ReceivedUnicastPackets 0
scalar RSUExampleScenario.tls[3].nic.mac1609_4 ReceivedBroadcasts 0
scalar RSUExampleScenario.tls[3].nic.mac1609_4 SentPackets 0
scalar RSUExampleScenario.tls[3].nic.mac1609_4 SentAcknowledgements 0
scalar RSUExampleScenario.tls[3].nic.mac1609_4 RetriesExceeded 0
scalar RSUExampleScenario.tls[3].nic.mac1609_4 SNIRLostPackets 0
scalar RSUExampleScenario.tls[3].nic.mac1609_4 RXTXLostPackets 0
scalar RSUExampleScenario.tls[3].nic.mac1609_4 TotalLostPackets 0
scalar RSUExampleScenario.tls[3].nic.mac1609_4 DroppedPacketsInMac 0
scalar RSUExampleScenario.tls[3].nic.mac1609_4 TooLittleTime 0
scalar RSUExampleScenario.tls[3].nic.mac1609_4 TimesIntoBackoff 0
scalar RSUExampleScenario.tls[3].nic.mac1609_4 SlotsBackoff 0
scalar RSUExampleScenario.tls[3].nic.mac1609_4 NumInternalContention 0
scalar RSUExampleScenario.tls[3].nic.mac1609_4 totalBusyTime 0
scalar RSUExampleScenario.tls[3].nic.mac1609_4 retriesExceeded:count 0
attr source org_car2x_veins_modules_mac_sigRetriesExceeded
scalar RSUExampleScenario.tls[3].nic.mac1609_4 sentAcks:count 0
attr source org_car2x_veins_modules_mac_sigSentAck
scalar RSUExampleScenario.tls[3].nic.mac1609_4 sentPackets:count 0
attr source org_car2x_veins_modules_mac_sigSentPacket
scalar RSUExampleScenario.tls[3].nic.mac1609_4 collisions:count 0
attr source org_car2x_veins_modules_mac_sigCollision
scalar RSUExampleScenario.tls[3].nic.mac1609_4 channelBusy:timeavg 0
attr source org_car2x_veins_modules_mac_sigChannelBusy
scalar RSUExampleScenario.tls[4].appl generatedWSMs 4291618039
scalar RSUExampleScenario.tls[4].appl receivedWSMs 4291618039
scalar RSUExampleScenario.tls[4].appl generatedBSMs 4291618039
scalar RSUExampleScenario.tls[4].appl receivedBSMs 4291618039
scalar RSUExampleScenario.tls[4].appl generatedWSAs 4291618039
scalar RSUExampleScenario.tls[4].appl receivedWSAs 4291618039
scalar RSUExampleScenario.tls[4].nic.phy80211p busyTime 0
scalar RSUExampleScenario.tls[4].nic.mac1609_4 ReceivedUnicastPackets 0
scalar RSUExampleScenario.tls[4].nic.mac1609_4 ReceivedBroadcasts 0
scalar RSUExampleScenario.tls[4].nic.mac1609_4 SentPackets 0
scalar RSUExampleScenario.tls[4].nic.mac1609_4 SentAcknowledgements 0
scalar RSUExampleScenario.tls[4].nic.mac1609_4 RetriesExceeded 0
scalar RSUExampleScenario.tls[4].nic.mac1609_4 SNIRLostPackets 0
scalar RSUExampleScenario.tls[4].nic.mac1609_4 RXTXLostPackets 0
scalar RSUExampleScenario.tls[4].nic.mac1609_4 TotalLostPackets 0
scalar RSUExampleScenario.tls[4].nic.mac1609_4 DroppedPacketsInMac 0
scalar RSUExampleScenario.tls[4].nic.mac1609_4 TooLittleTime 0
scalar RSUExampleScenario.tls[4].nic.mac1609_4 TimesIntoBackoff 0
scalar RSUExampleScenario.tls[4].nic.mac1609_4 SlotsBackoff 0
scalar RSUExampleScenario.tls[4].nic.mac1609_4 NumInternalContention 0
scalar RSUExampleScenario.tls[4].nic.mac1609_4 totalBusyTime 0
scalar RSUExampleScenario.tls[4].nic.mac1609_4 retriesExceeded:count 0
attr source org_car2x_veins_modules_mac_sigRetriesExceeded
scalar RSUExampleScenario.tls[4].nic.mac1609_4 sentAcks:count 0
attr source org_car2x_veins_modules_mac_sigSentAck
scalar RSUExampleScenario.tls[4].nic.mac1609_4 sentPackets:count 0
attr source org_car2x_veins_modules_mac_sigSentPacket
scalar RSUExampleScenario.tls[4].nic.mac1609_4 collisions:count 0
attr source org_car2x_veins_modules_mac_sigCollision
scalar RSUExampleScenario.tls[4].nic.mac1609_4 channelBusy:timeavg 0
attr source org_car2x_veins_modules_mac_sigChannelBusy
scalar RSUExampleScenario.tls[5].appl generatedWSMs 4291618039
scalar RSUExampleScenario.tls[5].appl receivedWSMs 4291618039
scalar RSUExampleScenario.tls[5].appl generatedBSMs 4291618039
scalar RSUExampleScenario.tls[5].appl receivedBSMs 4291618039
scalar RSUExampleScenario.tls[5].appl generatedWSAs 4291618039
scalar RSUExampleScenario.tls[5].appl receivedWSAs 4291618039
scalar RSUExampleScenario.tls[5].nic.phy80211p busyTime 0
scalar RSUExampleScenario.tls[5].nic.mac1609_4 ReceivedUnicastPackets 0
scalar RSUExampleScenario.tls[5].nic.mac1609_4 ReceivedBroadcasts 0
scalar RSUExampleScenario.tls[5].nic.mac1609_4 SentPackets 0
scalar RSUExampleScenario.tls[5].nic.mac1609_4 SentAcknowledgements 0
scalar RSUExampleScenario.tls[5].nic.mac1609_4 RetriesExceeded 0
scalar RSUExampleScenario.tls[5].nic.mac1609_4 SNIRLostPackets 0
scalar RSUExampleScenario.tls[5].nic.mac1609_4 RXTXLostPackets 0
scalar RSUExampleScenario.tls[5].nic.mac1609_4 TotalLostPackets 0
scalar RSUExampleScenario.tls[5].nic.mac1609_4 DroppedPacketsInMac 0
scalar RSUExampleScenario.tls[5].nic.mac1609_4 TooLittleTime 0
scalar RSUExampleScenario.tls[5].nic.mac1609_4 TimesIntoBackoff 0
scalar RSUExampleScenario.tls[5].nic.mac1609_4 SlotsBackoff 0
scalar RSUExampleScenario.tls[5].nic.mac1609_4 NumInternalContention 0
scalar RSUExampleScenario.tls[5].nic.mac1609_4 totalBusyTime 0
scalar RSUExampleScenario.tls[5].nic.mac1609_4 retriesExceeded:count 0
attr source org_car2x_veins_modules_mac_sigRetriesExceeded
scalar RSUExampleScenario.tls[5].nic.mac1609_4 sentAcks:count 0
attr source org_car2x_veins_modules_mac_sigSentAck
scalar RSUExampleScenario.tls[5].nic.mac1609_4 sentPackets:count 0
attr source org_car2x_veins_modules_mac_sigSentPacket
scalar RSUExampleScenario.tls[5].nic.mac1609_4 collisions:count 0
attr source org_car2x_veins_modules_mac_sigCollision
scalar RSUExampleScenario.tls[5].nic.mac1609_4 channelBusy:timeavg 0
attr source org_car2x_veins_modules_mac_sigChannelBusy
scalar RSUExampleScenario.tls[6].appl generatedWSMs 4291618039
scalar RSUExampleScenario.tls[6].appl receivedWSMs 4291618039
scalar RSUExampleScenario.tls[6].appl generatedBSMs 4291618039
scalar RSUExampleScenario.tls[6].appl receivedBSMs 4291618039
scalar RSUExampleScenario.tls[6].appl generatedWSAs 4291618039
scalar RSUExampleScenario.tls[6].appl receivedWSAs 4291618039
scalar RSUExampleScenario.tls[6].nic.phy80211p busyTime 0
scalar RSUExampleScenario.tls[6].nic.mac1609_4 ReceivedUnicastPackets 0
scalar RSUExampleScenario.tls[6].nic.mac1609_4 ReceivedBroadcasts 0
scalar RSUExampleScenario.tls[6].nic.mac1609_4 SentPackets 0
scalar RSUExampleScenario.tls[6].nic.mac1609_4 SentAcknowledgements 0
scalar RSUExampleScenario.tls[6].nic.mac1609_4 RetriesExceeded 0
scalar RSUExampleScenario.tls[6].nic.mac1609_4 SNIRLostPackets 0
scalar RSUExampleScenario.tls[6].nic.mac1609_4 RXTXLostPackets 0
scalar RSUExampleScenario.tls[6].nic.mac1609_4 TotalLostPackets 0
scalar RSUExampleScenario.tls[6].nic.mac1609_4 DroppedPacketsInMac 0
scalar RSUExampleScenario.tls[6].nic.mac1609_4 TooLittleTime 0
scalar RSUExampleScenario.tls[6].nic.mac1609_4 TimesIntoBackoff 0
scalar RSUExampleScenario.tls[6].nic.mac1609_4 SlotsBackoff 0
scalar RSUExampleScenario.tls[6].nic.mac1609_4 NumInternalContention 0
scalar RSUExampleScenario.tls[6].nic.mac1609_4 totalBusyTime 0
scalar RSUExampleScenario.tls[6].nic.mac1609_4 retriesExceeded:count 0
attr source org_car2x_veins_modules_mac_sigRetriesExceeded
scalar RSUExampleScenario.tls[6].nic.mac1609_4 sentAcks:count 0
attr source org_car2x_veins_modules_mac_sigSentAck
scalar RSUExampleScenario.tls[6].nic.mac1609_4 sentPackets:count 0
attr source org_car2x_veins_modules_mac_sigSentPacket
scalar RSUExampleScenario.tls[6].nic.mac1609_4 collisions:count 0
attr source org_car2x_veins_modules_mac_sigCollision
scalar RSUExampleScenario.tls[6].nic.mac1609_4 channelBusy:timeavg 0
attr source org_car2x_veins_modules_mac_sigChannelBusy
scalar RSUExampleScenario.tls[7].appl generatedWSMs 4291618039
scalar RSUExampleScenario.tls[7].appl receivedWSMs 4291618039
scalar RSUExampleScenario.tls[7].appl generatedBSMs 4291618039
scalar RSUExampleScenario.tls[7].appl receivedBSMs 4291618039
scalar RSUExampleScenario.tls[7].appl generatedWSAs 4291618039
scalar RSUExampleScenario.tls[7].appl receivedWSAs 4291618039
scalar RSUExampleScenario.tls[7].nic.phy80211p busyTime 0
scalar RSUExampleScenario.tls[7].nic.mac1609_4 ReceivedUnicastPackets 0
scalar RSUExampleScenario.tls[7].nic.mac1609_4 ReceivedBroadcasts 0
scalar RSUExampleScenario.tls[7].nic.mac1609_4 SentPackets 0
scalar RSUExampleScenario.tls[7].nic.mac1609_4 SentAcknowledgements 0
scalar RSUExampleScenario.tls[7].nic.mac1609_4 RetriesExceeded 0
scalar RSUExampleScenario.tls[7].nic.mac1609_4 SNIRLostPackets 0
scalar RSUExampleScenario.tls[7].nic.mac1609_4 RXTXLostPackets 0
scalar RSUExampleScenario.tls[7].nic.mac1609_4 TotalLostPackets 0
scalar RSUExampleScenario.tls[7].nic.mac1609_4 DroppedPacketsInMac 0
scalar RSUExampleScenario.tls[7].nic.mac1609_4 TooLittleTime 0
scalar RSUExampleScenario.tls[7].nic.mac1609_4 TimesIntoBackoff 0
scalar RSUExampleScenario.tls[7].nic.mac1609_4 SlotsBackoff 0
scalar RSUExampleScenario.tls[7].nic.mac1609_4 NumInternalContention 0
scalar RSUExampleScenario.tls[7].nic.mac1609_4 totalBusyTime 0
scalar RSUExampleScenario.tls[7].nic.mac1609_4 retriesExceeded:count 0
attr source org_car2x_veins_modules_mac_sigRetriesExceeded
scalar RSUExampleScenario.tls[7].nic.mac1609_4 sentAcks:count 0
attr source org_car2x_veins_modules_mac_sigSentAck
scalar RSUExampleScenario.tls[7].nic.mac1609_4 sentPackets:count 0
attr source org_car2x_veins_modules_mac_sigSentPacket
scalar RSUExampleScenario.tls[7].nic.mac1609_4 collisions:count 0
attr source org_car2x_veins_modules_mac_sigCollision
scalar RSUExampleScenario.tls[7].nic.mac1609_4 channelBusy:timeavg 0
attr source org_car2x_veins_modules_mac_sigChannelBusy
scalar RSUExampleScenario.tls[8].appl generatedWSMs 4291618039
scalar RSUExampleScenario.tls[8].appl receivedWSMs 4291618039
scalar RSUExampleScenario.tls[8].appl generatedBSMs 4291618039
scalar RSUExampleScenario.tls[8].appl receivedBSMs 4291618039
scalar RSUExampleScenario.tls[8].appl generatedWSAs 4291618039
scalar RSUExampleScenario.tls[8].appl receivedWSAs 4291618039
scalar RSUExampleScenario.tls[8].nic.phy80211p busyTime 0
scalar RSUExampleScenario.tls[8].nic.mac1609_4 ReceivedUnicastPackets 0
scalar RSUExampleScenario.tls[8].nic.mac1609_4 ReceivedBroadcasts 0
scalar RSUExampleScenario.tls[8].nic.mac1609_4 SentPackets 0
scalar RSUExampleScenario.tls[8].nic.mac1609_4 SentAcknowledgements 0
scalar RSUExampleScenario.tls[8].nic.mac1609_4 RetriesExceeded 0
scalar RSUExampleScenario.tls[8].nic.mac1609_4 SNIRLostPackets 0
scalar RSUExampleScenario.tls[8].nic.mac1609_4 RXTXLostPackets 0
scalar RSUExampleScenario.tls[8].nic.mac1609_4 TotalLostPackets 0
scalar RSUExampleScenario.tls[8].nic.mac1609_4 DroppedPacketsInMac 0
scalar RSUExampleScenario.tls[8].nic.mac1609_4 TooLittleTime 0
scalar RSUExampleScenario.tls[8].nic.mac1609_4 TimesIntoBackoff 0
scalar RSUExampleScenario.tls[8].nic.mac1609_4 SlotsBackoff 0
scalar RSUExampleScenario.tls[8].nic.mac1609_4 NumInternalContention 0
scalar RSUExampleScenario.tls[8].nic.mac1609_4 totalBusyTime 0
scalar RSUExampleScenario.tls[8].nic.mac1609_4 retriesExceeded:count 0
attr source org_car2x_veins_modules_mac_sigRetriesExceeded
scalar RSUExampleScenario.tls[8].nic.mac1609_4 sentAcks:count 0
attr source org_car2x_veins_modules_mac_sigSentAck
scalar RSUExampleScenario.tls[8].nic.mac1609_4 sentPackets:count 0
attr source org_car2x_veins_modules_mac_sigSentPacket
scalar RSUExampleScenario.tls[8].nic.mac1609_4 collisions:count 0
attr source org_car2x_veins_modules_mac_sigCollision
scalar RSUExampleScenario.tls[8].nic.mac1609_4 channelBusy:timeavg 0
attr source org_car2x_veins_modules_mac_sigChannelBusy
scalar RSUExampleScenario.tls[9].appl generatedWSMs 0
scalar RSUExampleScenario.tls[9].appl receivedWSMs 0
scalar RSUExampleScenario.tls[9].appl generatedBSMs 0
scalar RSUExampleScenario.tls[9].appl receivedBSMs 0
scalar RSUExampleScenario.tls[9].appl generatedWSAs 0
scalar RSUExampleScenario.tls[9].appl receivedWSAs 1815163568
scalar RSUExampleScenario.tls[9].nic.phy80211p busyTime 0
scalar RSUExampleScenario.tls[9].nic.mac1609_4 ReceivedUnicastPackets 0
scalar RSUExampleScenario.tls[9].nic.mac1609_4 ReceivedBroadcasts 0
scalar RSUExampleScenario.tls[9].nic.mac1609_4 SentPackets 0
scalar RSUExampleScenario.tls[9].nic.mac1609_4 SentAcknowledgements 0
scalar RSUExampleScenario.tls[9].nic.mac1609_4 RetriesExceeded 0
scalar RSUExampleScenario.tls[9].nic.mac1609_4 SNIRLostPackets 0
scalar RSUExampleScenario.tls[9].nic.mac1609_4 RXTXLostPackets 0
scalar RSUExampleScenario.tls[9].nic.mac1609_4 TotalLostPackets 0
scalar RSUExampleScenario.tls[9].nic.mac1609_4 DroppedPacketsInMac 0
scalar RSUExampleScenario.tls[9].nic.mac1609_4 TooLittleTime 0
scalar RSUExampleScenario.tls[9].nic.mac1609_4 TimesIntoBackoff 0
scalar RSUExampleScenario.tls[9].nic.mac1609_4 SlotsBackoff 0
scalar RSUExampleScenario.tls[9].nic.mac1609_4 NumInternalContention 0
scalar RSUExampleScenario.tls[9].nic.mac1609_4 totalBusyTime 0
scalar RSUExampleScenario.tls[9].nic.mac1609_4 retriesExceeded:count 0
attr source org_car2x_veins_modules_mac_sigRetriesExceeded
scalar RSUExampleScenario.tls[9].nic.mac1609_4 sentAcks:count 0
attr source org_car2x_veins_modules_mac_sigSentAck
scalar RSUExampleScenario.tls[9].nic.mac1609_4 sentPackets:count 0
attr source org_car2x_veins_modules_mac_sigSentPacket
scalar RSUExampleScenario.tls[9].nic.mac1609_4 collisions:count 0
attr source org_car2x_veins_modules_mac_sigCollision
scalar RSUExampleScenario.tls[9].nic.mac1609_4 channelBusy:timeavg 0
attr source org_car2x_veins_modules_mac_sigChannelBusy
scalar RSUExampleScenario.tls[10].appl generatedWSMs 4291618039
scalar RSUExampleScenario.tls[10].appl receivedWSMs 4291618039
scalar RSUExampleScenario.tls[10].appl generatedBSMs 4291618039
scalar RSUExampleScenario.tls[10].appl receivedBSMs 4291618039
scalar RSUExampleScenario.tls[10].appl generatedWSAs 4291618039
scalar RSUExampleScenario.tls[10].appl receivedWSAs 4291618039
scalar RSUExampleScenario.tls[10].nic.phy80211p busyTime 0
scalar RSUExampleScenario.tls[10].nic.mac1609_4 ReceivedUnicastPackets 0
scalar RSUExampleScenario.tls[10].nic.mac1609_4 ReceivedBroadcasts 0
scalar RSUExampleScenario.tls[10].nic.mac1609_4 SentPackets 0
scalar RSUExampleScenario.tls[10].nic.mac1609_4 SentAcknowledgements 0
scalar RSUExampleScenario.tls[10].nic.mac1609_4 RetriesExceeded 0
scalar RSUExampleScenario.tls[10].nic.mac1609_4 SNIRLostPackets 0
scalar RSUExampleScenario.tls[10].nic.mac1609_4 RXTXLostPackets 0
scalar RSUExampleScenario.tls[10].nic.mac1609_4 TotalLostPackets 0
scalar RSUExampleScenario.tls[10].nic.mac1609_4 DroppedPacketsInMac 0
scalar RSUExampleScenario.tls[10].nic.mac1609_4 TooLittleTime 0
scalar RSUExampleScenario.tls[10].nic.mac1609_4 TimesIntoBackoff 0
scalar RSUExampleScenario.tls[10].nic.mac1609_4 SlotsBackoff 0
scalar RSUExampleScenario.tls[10].nic.mac1609_4 NumInternalContention 0
scalar RSUExampleScenario.tls[10].nic.mac1609_4 totalBusyTime 0
scalar RSUExampleScenario.tls[10].nic.mac1609_4 retriesExceeded:count 0
attr source org_car2x_veins_modules_mac_sigRetriesExceeded
scalar RSUExampleScenario.tls[10].nic.mac1609_4 sentAcks:count 0
attr source org_car2x_veins_modules_mac_sigSentAck
scalar RSUExampleScenario.tls[10].nic.mac1609_4 sentPackets:count 0
attr source org_car2x_veins_modules_mac_sigSentPacket
scalar RSUExampleScenario.tls[10].nic.mac1609_4 collisions:count 0
attr source org_car2x_veins_modules_mac_sigCollision
scalar RSUExampleScenario.tls[10].nic.mac1609_4 channelBusy:timeavg 0
attr source org_car2x_veins_modules_mac_sigChannelBusy
scalar RSUExampleScenario.tls[11].appl generatedWSMs 4291618039
scalar RSUExampleScenario.tls[11].appl receivedWSMs 4291618039
scalar RSUExampleScenario.tls[11].appl generatedBSMs 4291618039
scalar RSUExampleScenario.tls[11].appl receivedBSMs 4291618039
scalar RSUExampleScenario.tls[11].appl generatedWSAs 4291618039
scalar RSUExampleScenario.tls[11].appl receivedWSAs 4291618039
scalar RSUExampleScenario.tls[11].nic.phy80211p busyTime 0
scalar RSUExampleScenario.tls[11].nic.mac1609_4 ReceivedUnicastPackets 0
scalar RSUExampleScenario.tls[11].nic.mac1609_4 ReceivedBroadcasts 0
scalar RSUExampleScenario.tls[11].nic.mac1609_4 SentPackets 0
scalar RSUExampleScenario.tls[11].nic.mac1609_4 SentAcknowledgements 0
scalar RSUExampleScenario.tls[11].nic.mac1609_4 RetriesExceeded 0
scalar RSUExampleScenario.tls[11].nic.mac1609_4 SNIRLostPackets 0
scalar RSUExampleScenario.tls[11].nic.mac1609_4 RXTXLostPackets 0
scalar RSUExampleScenario.tls[11].nic.mac1609_4 TotalLostPackets 0
scalar RSUExampleScenario.tls[11].nic.mac1609_4 DroppedPacketsInMac 0
scalar RSUExampleScenario.tls[11].nic.mac1609_4 TooLittleTime 0
scalar RSUExampleScenario.tls[11].nic.mac1609_4 TimesIntoBackoff 0
scalar RSUExampleScenario.tls[11].nic.mac1609_4 SlotsBackoff 0
scalar RSUExampleScenario.tls[11].nic.mac1609_4 NumInternalContention 0
scalar RSUExampleScenario.tls[11].nic.mac1609_4 totalBusyTime 0
scalar RSUExampleScenario.tls[11].nic.mac1609_4 retriesExceeded:count 0
attr source org_car2x_veins_modules_mac_sigRetriesExceeded
scalar RSUExampleScenario.tls[11].nic.mac1609_4 sentAcks:count 0
attr source org_car2x_veins_modules_mac_sigSentAck
scalar RSUExampleScenario.tls[11].nic.mac1609_4 sentPackets:count 0
attr source org_car2x_veins_modules_mac_sigSentPacket
scalar RSUExampleScenario.tls[11].nic.mac1609_4 collisions:count 0
attr source org_car2x_veins_modules_mac_sigCollision
scalar RSUExampleScenario.tls[11].nic.mac1609_4 channelBusy:timeavg 0
attr source org_car2x_veins_modules_mac_sigChannelBusy
scalar RSUExampleScenario.tls[12].appl generatedWSMs 0
scalar RSUExampleScenario.tls[12].appl receivedWSMs 0
scalar RSUExampleScenario.tls[12].appl generatedBSMs 0
scalar RSUExampleScenario.tls[12].appl receivedBSMs 0
scalar RSUExampleScenario.tls[12].appl generatedWSAs 0
scalar RSUExampleScenario.tls[12].appl receivedWSAs 1815163568
scalar RSUExampleScenario.tls[12].nic.phy80211p busyTime 0
scalar RSUExampleScenario.tls[12].nic.mac1609_4 ReceivedUnicastPackets 0
scalar RSUExampleScenario.tls[12].nic.mac1609_4 ReceivedBroadcasts 0
scalar RSUExampleScenario.tls[12].nic.mac1609_4 SentPackets 0
scalar RSUExampleScenario.tls[12].nic.mac1609_4 SentAcknowledgements 0
scalar RSUExampleScenario.tls[12].nic.mac1609_4 RetriesExceeded 0
scalar RSUExampleScenario.tls[12].nic.mac1609_4 SNIRLostPackets 0
scalar RSUExampleScenario.tls[12].nic.mac1609_4 RXTXLostPackets 0
scalar RSUExampleScenario.tls[12].nic.mac1609_4 TotalLostPackets 0
scalar RSUExampleScenario.tls[12].nic.mac1609_4 DroppedPacketsInMac 0
scalar RSUExampleScenario.tls[12].nic.mac1609_4 TooLittleTime 0
scalar RSUExampleScenario.tls[12].nic.mac1609_4 TimesIntoBackoff 0
scalar RSUExampleScenario.tls[12].nic.mac1609_4 SlotsBackoff 0
scalar RSUExampleScenario.tls[12].nic.mac1609_4 NumInternalContention 0
scalar RSUExampleScenario.tls[12].nic.mac1609_4 totalBusyTime 0
scalar RSUExampleScenario.tls[12].nic.mac1609_4 retriesExceeded:count 0
attr source org_car2x_veins_modules_mac_sigRetriesExceeded
scalar RSUExampleScenario.tls[12].nic.mac1609_4 sentAcks:count 0
attr source org_car2x_veins_modules_mac_sigSentAck
scalar RSUExampleScenario.tls[12].nic.mac1609_4 sentPackets:count 0
attr source org_car2x_veins_modules_mac_sigSentPacket
scalar RSUExampleScenario.tls[12].nic.mac1609_4 collisions:count 0
attr source org_car2x_veins_modules_mac_sigCollision
scalar RSUExampleScenario.tls[12].nic.mac1609_4 channelBusy:timeavg 0
attr source org_car2x_veins_modules_mac_sigChannelBusy
scalar RSUExampleScenario.tls[13].appl generatedWSMs 4291618039
scalar RSUExampleScenario.tls[13].appl receivedWSMs 4291618039
scalar RSUExampleScenario.tls[13].appl generatedBSMs 4291618039
scalar RSUExampleScenario.tls[13].appl receivedBSMs 4291618039
scalar RSUExampleScenario.tls[13].appl generatedWSAs 4291618039
scalar RSUExampleScenario.tls[13].appl receivedWSAs 4291618039
scalar RSUExampleScenario.tls[13].nic.phy80211p busyTime 0
scalar RSUExampleScenario.tls[13].nic.mac1609_4 ReceivedUnicastPackets 0
scalar RSUExampleScenario.tls[13].nic.mac1609_4 ReceivedBroadcasts 0
scalar RSUExampleScenario.tls[13].nic.mac1609_4 SentPackets 0
scalar RSUExampleScenario.tls[13].nic.mac1609_4 SentAcknowledgements 0
scalar RSUExampleScenario.tls[13].nic.mac1609_4 RetriesExceeded 0
scalar RSUExampleScenario.tls[13].nic.mac1609_4 SNIRLostPackets 0
scalar RSUExampleScenario.tls[13].nic.mac1609_4 RXTXLostPackets 0
scalar RSUExampleScenario.tls[13].nic.mac1609_4 TotalLostPackets 0
scalar RSUExampleScenario.tls[13].nic.mac1609_4 DroppedPacketsInMac 0
scalar RSUExampleScenario.tls[13].nic.mac1609_4 TooLittleTime 0
scalar RSUExampleScenario.tls[13].nic.mac1609_4 TimesIntoBackoff 0
scalar RSUExampleScenario.tls[13].nic.mac1609_4 SlotsBackoff 0
scalar RSUExampleScenario.tls[13].nic.mac1609_4 NumInternalContention 0
scalar RSUExampleScenario.tls[13].nic.mac1609_4 totalBusyTime 0
scalar RSUExampleScenario.tls[13].nic.mac1609_4 retriesExceeded:count 0
attr source org_car2x_veins_modules_mac_sigRetriesExceeded
scalar RSUExampleScenario.tls[13].nic.mac1609_4 sentAcks:count 0
attr source org_car2x_veins_modules_mac_sigSentAck
scalar RSUExampleScenario.tls[13].nic.mac1609_4 sentPackets:count 0
attr source org_car2x_veins_modules_mac_sigSentPacket
scalar RSUExampleScenario.tls[13].nic.mac1609_4 collisions:count 0
attr source org_car2x_veins_modules_mac_sigCollision
scalar RSUExampleScenario.tls[13].nic.mac1609_4 channelBusy:timeavg 0
attr source org_car2x_veins_modules_mac_sigChannelBusy
scalar RSUExampleScenario.tls[14].appl generatedWSMs 0
scalar RSUExampleScenario.tls[14].appl receivedWSMs 0
scalar RSUExampleScenario.tls[14].appl generatedBSMs 0
scalar RSUExampleScenario.tls[14].appl receivedBSMs 0
scalar RSUExampleScenario.tls[14].appl generatedWSAs 0
scalar RSUExampleScenario.tls[14].appl receivedWSAs 1815163568
scalar RSUExampleScenario.tls[14].nic.phy80211p busyTime 0
scalar RSUExampleScenario.tls[14].nic.mac1609_4 ReceivedUnicastPackets 0
scalar RSUExampleScenario.tls[14].nic.mac1609_4 ReceivedBroadcasts 0
scalar RSUExampleScenario.tls[14].nic.mac1609_4 SentPackets 0
scalar RSUExampleScenario.tls[14].nic.mac1609_4 SentAcknowledgements 0
scalar RSUExampleScenario.tls[14].nic.mac1609_4 RetriesExceeded 0
scalar RSUExampleScenario.tls[14].nic.mac1609_4 SNIRLostPackets 0
scalar RSUExampleScenario.tls[14].nic.mac1609_4 RXTXLostPackets 0
scalar RSUExampleScenario.tls[14].nic.mac1609_4 TotalLostPackets 0
scalar RSUExampleScenario.tls[14].nic.mac1609_4 DroppedPacketsInMac 0
scalar RSUExampleScenario.tls[14].nic.mac1609_4 TooLittleTime 0
scalar RSUExampleScenario.tls[14].nic.mac1609_4 TimesIntoBackoff 0
scalar RSUExampleScenario.tls[14].nic.mac1609_4 SlotsBackoff 0
scalar RSUExampleScenario.tls[14].nic.mac1609_4 NumInternalContention 0
scalar RSUExampleScenario.tls[14].nic.mac1609_4 totalBusyTime 0
scalar RSUExampleScenario.tls[14].nic.mac1609_4 retriesExceeded:count 0
attr source org_car2x_veins_modules_mac_sigRetriesExceeded
scalar RSUExampleScenario.tls[14].nic.mac1609_4 sentAcks:count 0
attr source org_car2x_veins_modules_mac_sigSentAck
scalar RSUExampleScenario.tls[14].nic.mac1609_4 sentPackets:count 0
attr source org_car2x_veins_modules_mac_sigSentPacket
scalar RSUExampleScenario.tls[14].nic.mac1609_4 collisions:count 0
attr source org_car2x_veins_modules_mac_sigCollision
scalar RSUExampleScenario.tls[14].nic.mac1609_4 channelBusy:timeavg 0
attr source org_car2x_veins_modules_mac_sigChannelBusy
scalar RSUExampleScenario.tls[15].appl generatedWSMs 0
scalar RSUExampleScenario.tls[15].appl receivedWSMs 0
scalar RSUExampleScenario.tls[15].appl generatedBSMs 0
scalar RSUExampleScenario.tls[15].appl receivedBSMs 0
scalar RSUExampleScenario.tls[15].appl generatedWSAs 0
scalar RSUExampleScenario.tls[15].appl receivedWSAs 1815163568
scalar RSUExampleScenario.tls[15].nic.phy80211p busyTime 0
scalar RSUExampleScenario.tls[15].nic.mac1609_4 ReceivedUnicastPackets 0
scalar RSUExampleScenario.tls[15].nic.mac1609_4 ReceivedBroadcasts 0
scalar RSUExampleScenario.tls[15].nic.mac1609_4 SentPackets 0
scalar RSUExampleScenario.tls[15].nic.mac1609_4 SentAcknowledgements 0
scalar RSUExampleScenario.tls[15].nic.mac1609_4 RetriesExceeded 0
scalar RSUExampleScenario.tls[15].nic.mac1609_4 SNIRLostPackets 0
scalar RSUExampleScenario.tls[15].nic.mac1609_4 RXTXLostPackets 0
scalar RSUExampleScenario.tls[15].nic.mac1609_4 TotalLostPackets 0
scalar RSUExampleScenario.tls[15].nic.mac1609_4 DroppedPacketsInMac 0
scalar RSUExampleScenario.tls[15].nic.mac1609_4 TooLittleTime 0
scalar RSUExampleScenario.tls[15].nic.mac1609_4 TimesIntoBackoff 0
scalar RSUExampleScenario.tls[15].nic.mac1609_4 SlotsBackoff 0
scalar RSUExampleScenario.tls[15].nic.mac1609_4 NumInternalContention 0
scalar RSUExampleScenario.tls[15].nic.mac1609_4 totalBusyTime 0
scalar RSUExampleScenario.tls[15].nic.mac1609_4 retriesExceeded:count 0
attr source org_car2x_veins_modules_mac_sigRetriesExceeded
scalar RSUExampleScenario.tls[15].nic.mac1609_4 sentAcks:count 0
attr source org_car2x_veins_modules_mac_sigSentAck
scalar RSUExampleScenario.tls[15].nic.mac1609_4 sentPackets:count 0
attr source org_car2x_veins_modules_mac_sigSentPacket
scalar RSUExampleScenario.tls[15].nic.mac1609_4 collisions:count 0
attr source org_car2x_veins_modules_mac_sigCollision
scalar RSUExampleScenario.tls[15].nic.mac1609_4 channelBusy:timeavg 0
attr source org_car2x_veins_modules_mac_sigChannelBusy
scalar RSUExampleScenario.tls[16].appl generatedWSMs 0
scalar RSUExampleScenario.tls[16].appl receivedWSMs 0
scalar RSUExampleScenario.tls[16].appl generatedBSMs 0
scalar RSUExampleScenario.tls[16].appl receivedBSMs 0
scalar RSUExampleScenario.tls[16].appl generatedWSAs 0
scalar RSUExampleScenario.tls[16].appl receivedWSAs 1815163568
scalar RSUExampleScenario.tls[16].nic.phy80211p busyTime 0
scalar RSUExampleScenario.tls[16].nic.mac1609_4 ReceivedUnicastPackets 0
scalar RSUExampleScenario.tls[16].nic.mac1609_4 ReceivedBroadcasts 0
scalar RSUExampleScenario.tls[16].nic.mac1609_4 SentPackets 0
scalar RSUExampleScenario.tls[16].nic.mac1609_4 SentAcknowledgements 0
scalar RSUExampleScenario.tls[16].nic.mac1609_4 RetriesExceeded 0
scalar RSUExampleScenario.tls[16].nic.mac1609_4 SNIRLostPackets 0
scalar RSUExampleScenario.tls[16].nic.mac1609_4 RXTXLostPackets 0
scalar RSUExampleScenario.tls[16].nic.mac1609_4 TotalLostPackets 0
scalar RSUExampleScenario.tls[16].nic.mac1609_4 DroppedPacketsInMac 0
scalar RSUExampleScenario.tls[16].nic.mac1609_4 TooLittleTime 0
scalar RSUExampleScenario.tls[16].nic.mac1609_4 TimesIntoBackoff 0
scalar RSUExampleScenario.tls[16].nic.mac1609_4 SlotsBackoff 0
scalar RSUExampleScenario.tls[16].nic.mac1609_4 NumInternalContention 0
scalar RSUExampleScenario.tls[16].nic.mac1609_4 totalBusyTime 0
scalar RSUExampleScenario.tls[16].nic.mac1609_4 retriesExceeded:count 0
attr source org_car2x_veins_modules_mac_sigRetriesExceeded
scalar RSUExampleScenario.tls[16].nic.mac1609_4 sentAcks:count 0
attr source org_car2x_veins_modules_mac_sigSentAck
scalar RSUExampleScenario.tls[16].nic.mac1609_4 sentPackets:count 0
attr source org_car2x_veins_modules_mac_sigSentPacket
scalar RSUExampleScenario.tls[16].nic.mac1609_4 collisions:count 0
attr source org_car2x_veins_modules_mac_sigCollision
scalar RSUExampleScenario.tls[16].nic.mac1609_4 channelBusy:timeavg 0
attr source org_car2x_veins_modules_mac_sigChannelBusy
scalar RSUExampleScenario.tls[17].appl generatedWSMs 4291618039
scalar RSUExampleScenario.tls[17].appl receivedWSMs 4291618039
scalar RSUExampleScenario.tls[17].appl generatedBSMs 4291618039
scalar RSUExampleScenario.tls[17].appl receivedBSMs 4291618039
scalar RSUExampleScenario.tls[17].appl generatedWSAs 4291618039
scalar RSUExampleScenario.tls[17].appl receivedWSAs 4291618039
scalar RSUExampleScenario.tls[17].nic.phy80211p busyTime 0
scalar RSUExampleScenario.tls[17].nic.mac1609_4 ReceivedUnicastPackets 0
scalar RSUExampleScenario.tls[17].nic.mac1609_4 ReceivedBroadcasts 0
scalar RSUExampleScenario.tls[17].nic.mac1609_4 SentPackets 0
scalar RSUExampleScenario.tls[17].nic.mac1609_4 SentAcknowledgements 0
scalar RSUExampleScenario.tls[17].nic.mac1609_4 RetriesExceeded 0
scalar RSUExampleScenario.tls[17].nic.mac1609_4 SNIRLostPackets 0
scalar RSUExampleScenario.tls[17].nic.mac1609_4 RXTXLostPackets 0
scalar RSUExampleScenario.tls[17].nic.mac1609_4 TotalLostPackets 0
scalar RSUExampleScenario.tls[17].nic.mac1609_4 DroppedPacketsInMac 0
scalar RSUExampleScenario.tls[17].nic.mac1609_4 TooLittleTime 0
scalar RSUExampleScenario.tls[17].nic.mac1609_4 TimesIntoBackoff 0
scalar RSUExampleScenario.tls[17].nic.mac1609_4 SlotsBackoff 0
scalar RSUExampleScenario.tls[17].nic.mac1609_4 NumInternalContention 0
scalar RSUExampleScenario.tls[17].nic.mac1609_4 totalBusyTime 0
scalar RSUExampleScenario.tls[17].nic.mac1609_4 retriesExceeded:count 0
attr source org_car2x_veins_modules_mac_sigRetriesExceeded
scalar RSUExampleScenario.tls[17].nic.mac1609_4 sentAcks:count 0
attr source org_car2x_veins_modules_mac_sigSentAck
scalar RSUExampleScenario.tls[17].nic.mac1609_4 sentPackets:count 0
attr source org_car2x_veins_modules_mac_sigSentPacket
scalar RSUExampleScenario.tls[17].nic.mac1609_4 collisions:count 0
attr source org_car2x_veins_modules_mac_sigCollision
scalar RSUExampleScenario.tls[17].nic.mac1609_4 channelBusy:timeavg 0
attr source org_car2x_veins_modules_mac_sigChannelBusy
scalar RSUExampleScenario.tls[18].appl generatedWSMs 0
scalar RSUExampleScenario.tls[18].appl receivedWSMs 0
scalar RSUExampleScenario.tls[18].appl generatedBSMs 0
scalar RSUExampleScenario.tls[18].appl receivedBSMs 0
scalar RSUExampleScenario.tls[18].appl generatedWSAs 0
scalar RSUExampleScenario.tls[18].appl receivedWSAs 1815163568
scalar RSUExampleScenario.tls[18].nic.phy80211p busyTime 0
scalar RSUExampleScenario.tls[18].nic.mac1609_4 ReceivedUnicastPackets 0
scalar RSUExampleScenario.tls[18].nic.mac1609_4 ReceivedBroadcasts 0
scalar RSUExampleScenario.tls[18].nic.mac1609_4 SentPackets 0
scalar RSUExampleScenario.tls[18].nic.mac1609_4 SentAcknowledgements 0
scalar RSUExampleScenario.tls[18].nic.mac1609_4 RetriesExceeded 0
scalar RSUExampleScenario.tls[18].nic.mac1609_4 SNIRLostPackets 0
scalar RSUExampleScenario.tls[18].nic.mac1609_4 RXTXLostPackets 0
scalar RSUExampleScenario.tls[18].nic.mac1609_4 TotalLostPackets 0
scalar RSUExampleScenario.tls[18].nic.mac1609_4 DroppedPacketsInMac 0
scalar RSUExampleScenario.tls[18].nic.mac1609_4 TooLittleTime 0
scalar RSUExampleScenario.tls[18].nic.mac1609_4 TimesIntoBackoff 0
scalar RSUExampleScenario.tls[18].nic.mac1609_4 SlotsBackoff 0
scalar RSUExampleScenario.tls[18].nic.mac1609_4 NumInternalContention 0
scalar RSUExampleScenario.tls[18].nic.mac1609_4 totalBusyTime 0
scalar RSUExampleScenario.tls[18].nic.mac1609_4 retriesExceeded:count 0
attr source org_car2x_veins_modules_mac_sigRetriesExceeded
scalar RSUExampleScenario.tls[18].nic.mac1609_4 sentAcks:count 0
attr source org_car2x_veins_modules_mac_sigSentAck
scalar RSUExampleScenario.tls[18].nic.mac1609_4 sentPackets:count 0
attr source org_car2x_veins_modules_mac_sigSentPacket
scalar RSUExampleScenario.tls[18].nic.mac1609_4 collisions:count 0
attr source org_car2x_veins_modules_mac_sigCollision
scalar RSUExampleScenario.tls[18].nic.mac1609_4 channelBusy:timeavg 0
attr source org_car2x_veins_modules_mac_sigChannelBusy
scalar RSUExampleScenario.node[0].appl generatedWSMs 0
scalar RSUExampleScenario.node[0].appl receivedWSMs 0
scalar RSUExampleScenario.node[0].appl generatedBSMs 0
scalar RSUExampleScenario.node[0].appl receivedBSMs 0
scalar RSUExampleScenario.node[0].appl generatedWSAs 0
scalar RSUExampleScenario.node[0].appl receivedWSAs 0
scalar RSUExampleScenario.node[0].nic.phy80211p busyTime 0
scalar RSUExampleScenario.node[0].nic.mac1609_4 ReceivedUnicastPackets 0
scalar RSUExampleScenario.node[0].nic.mac1609_4 ReceivedBroadcasts 0
scalar RSUExampleScenario.node[0].nic.mac1609_4 SentPackets 0
scalar RSUExampleScenario.node[0].nic.mac1609_4 SentAcknowledgements 0
scalar RSUExampleScenario.node[0].nic.mac1609_4 RetriesExceeded 0
scalar RSUExampleScenario.node[0].nic.mac1609_4 SNIRLostPackets 0
scalar RSUExampleScenario.node[0].nic.mac1609_4 RXTXLostPackets 0
scalar RSUExampleScenario.node[0].nic.mac1609_4 TotalLostPackets 0
scalar RSUExampleScenario.node[0].nic.mac1609_4 DroppedPacketsInMac 0
scalar RSUExampleScenario.node[0].nic.mac1609_4 TooLittleTime 0
scalar RSUExampleScenario.node[0].nic.mac1609_4 TimesIntoBackoff 0
scalar RSUExampleScenario.node[0].nic.mac1609_4 SlotsBackoff 0
scalar RSUExampleScenario.node[0].nic.mac1609_4 NumInternalContention 0
scalar RSUExampleScenario.node[0].nic.mac1609_4 totalBusyTime 0
scalar RSUExampleScenario.node[0].nic.mac1609_4 retriesExceeded:count 0
attr source org_car2x_veins_modules_mac_sigRetriesExceeded
scalar RSUExampleScenario.node[0].nic.mac1609_4 sentAcks:count 0
attr source org_car2x_veins_modules_mac_sigSentAck
scalar RSUExampleScenario.node[0].nic.mac1609_4 sentPackets:count 0
attr source org_car2x_veins_modules_mac_sigSentPacket
scalar RSUExampleScenario.node[0].nic.mac1609_4 collisions:count 0
attr source org_car2x_veins_modules_mac_sigCollision
scalar RSUExampleScenario.node[0].nic.mac1609_4 channelBusy:timeavg 0
attr source org_car2x_veins_modules_mac_sigChannelBusy
scalar RSUExampleScenario.node[0].veinsmobility startTime 1
scalar RSUExampleScenario.node[0].veinsmobility totalTime 42
scalar RSUExampleScenario.node[0].veinsmobility stopTime 43
scalar RSUExampleScenario.node[0].veinsmobility minSpeed 0.8
scalar RSUExampleScenario.node[0].veinsmobility maxSpeed 11.95
scalar RSUExampleScenario.node[0].veinsmobility totalDistance 277.73486667185
scalar RSUExampleScenario.node[0].veinsmobility totalCO2Emission 91.643546368302
scalar RSUExampleScenario.node[1].appl generatedWSMs 0
scalar RSUExampleScenario.node[1].appl receivedWSMs 0
scalar RSUExampleScenario.node[1].appl generatedBSMs 0
scalar RSUExampleScenario.node[1].appl receivedBSMs 0
scalar RSUExampleScenario.node[1].appl generatedWSAs 0
scalar RSUExampleScenario.node[1].appl receivedWSAs 0
scalar RSUExampleScenario.node[1].nic.phy80211p busyTime 0
scalar RSUExampleScenario.node[1].nic.mac1609_4 ReceivedUnicastPackets 0
scalar RSUExampleScenario.node[1].nic.mac1609_4 ReceivedBroadcasts 0
scalar RSUExampleScenario.node[1].nic.mac1609_4 SentPackets 0
scalar RSUExampleScenario.node[1].nic.mac1609_4 SentAcknowledgements 0
scalar RSUExampleScenario.node[1].nic.mac1609_4 RetriesExceeded 0
scalar RSUExampleScenario.node[1].nic.mac1609_4 SNIRLostPackets 0
scalar RSUExampleScenario.node[1].nic.mac1609_4 RXTXLostPackets 0
scalar RSUExampleScenario.node[1].nic.mac1609_4 TotalLostPackets 0
scalar RSUExampleScenario.node[1].nic.mac1609_4 DroppedPacketsInMac 0
scalar RSUExampleScenario.node[1].nic.mac1609_4 TooLittleTime 0
scalar RSUExampleScenario.node[1].nic.mac1609_4 TimesIntoBackoff 0
scalar RSUExampleScenario.node[1].nic.mac1609_4 SlotsBackoff 0
scalar RSUExampleScenario.node[1].nic.mac1609_4 NumInternalContention 0
scalar RSUExampleScenario.node[1].nic.mac1609_4 totalBusyTime 0
scalar RSUExampleScenario.node[1].nic.mac1609_4 retriesExceeded:count 0
attr source org_car2x_veins_modules_mac_sigRetriesExceeded
scalar RSUExampleScenario.node[1].nic.mac1609_4 sentAcks:count 0
attr source org_car2x_veins_modules_mac_sigSentAck
scalar RSUExampleScenario.node[1].nic.mac1609_4 sentPackets:count 0
attr source org_car2x_veins_modules_mac_sigSentPacket
scalar RSUExampleScenario.node[1].nic.mac1609_4 collisions:count 0
attr source org_car2x_veins_modules_mac_sigCollision
scalar RSUExampleScenario.node[1].nic.mac1609_4 channelBusy:timeavg 0
attr source org_car2x_veins_modules_mac_sigChannelBusy
scalar RSUExampleScenario.node[1].veinsmobility startTime 1
scalar RSUExampleScenario.node[1].veinsmobility totalTime 42
scalar RSUExampleScenario.node[1].veinsmobility stopTime 43
scalar RSUExampleScenario.node[1].veinsmobility minSpeed 0.8
scalar RSUExampleScenario.node[1].veinsmobility maxSpeed 13.89
scalar RSUExampleScenario.node[1].veinsmobility totalDistance 337.78170506101
scalar RSUExampleScenario.node[1].veinsmobility totalCO2Emission 103.93944718797
scalar RSUExampleScenario.node[2].appl generatedWSMs 0
scalar RSUExampleScenario.node[2].appl receivedWSMs 0
scalar RSUExampleScenario.node[2].appl generatedBSMs 0
scalar RSUExampleScenario.node[2].appl receivedBSMs 0
scalar RSUExampleScenario.node[2].appl generatedWSAs 0
scalar RSUExampleScenario.node[2].appl receivedWSAs 0
scalar RSUExampleScenario.node[2].nic.phy80211p busyTime 0
scalar RSUExampleScenario.node[2].nic.mac1609_4 ReceivedUnicastPackets 0
scalar RSUExampleScenario.node[2].nic.mac1609_4 ReceivedBroadcasts 0
scalar RSUExampleScenario.node[2].nic.mac1609_4 SentPackets 0
scalar RSUExampleScenario.node[2].nic.mac1609_4 SentAcknowledgements 0
scalar RSUExampleScenario.node[2].nic.mac1609_4 RetriesExceeded 0
scalar RSUExampleScenario.node[2].nic.mac1609_4 SNIRLostPackets 0
scalar RSUExampleScenario.node[2].nic.mac1609_4 RXTXLostPackets 0
scalar RSUExampleScenario.node[2].nic.mac1609_4 TotalLostPackets 0
scalar RSUExampleScenario.node[2].nic.mac1609_4 DroppedPacketsInMac 0
scalar RSUExampleScenario.node[2].nic.mac1609_4 TooLittleTime 0
scalar RSUExampleScenario.node[2].nic.mac1609_4 TimesIntoBackoff 0
scalar RSUExampleScenario.node[2].nic.mac1609_4 SlotsBackoff 0
scalar RSUExampleScenario.node[2].nic.mac1609_4 NumInternalContention 0
scalar RSUExampleScenario.node[2].nic.mac1609_4 totalBusyTime 0
scalar RSUExampleScenario.node[2].nic.mac1609_4 retriesExceeded:count 0
attr source org_car2x_veins_modules_mac_sigRetriesExceeded
scalar RSUExampleScenario.node[2].nic.mac1609_4 sentAcks:count 0
attr source org_car2x_veins_modules_mac_sigSentAck
scalar RSUExampleScenario.node[2].nic.mac1609_4 sentPackets:count 0
attr source org_car2x_veins_modules_mac_sigSentPacket
scalar RSUExampleScenario.node[2].nic.mac1609_4 collisions:count 0
attr source org_car2x_veins_modules_mac_sigCollision
scalar RSUExampleScenario.node[2].nic.mac1609_4 channelBusy:timeavg 0
attr source org_car2x_veins_modules_mac_sigChannelBusy
scalar RSUExampleScenario.node[2].veinsmobility startTime 2
scalar RSUExampleScenario.node[2].veinsmobility totalTime 41
scalar RSUExampleScenario.node[2].veinsmobility stopTime 43
scalar RSUExampleScenario.node[2].veinsmobility minSpeed 0.8
scalar RSUExampleScenario.node[2].veinsmobility maxSpeed 13.89
scalar RSUExampleScenario.node[2].veinsmobility totalDistance 377.45833965758
scalar RSUExampleScenario.node[2].veinsmobility totalCO2Emission 103.66463345238
scalar RSUExampleScenario.node[3].appl generatedWSMs 0
scalar RSUExampleScenario.node[3].appl receivedWSMs 0
scalar RSUExampleScenario.node[3].appl generatedBSMs 0
scalar RSUExampleScenario.node[3].appl receivedBSMs 0
scalar RSUExampleScenario.node[3].appl generatedWSAs 0
scalar RSUExampleScenario.node[3].appl receivedWSAs 0
scalar RSUExampleScenario.node[3].nic.phy80211p busyTime 0
scalar RSUExampleScenario.node[3].nic.mac1609_4 ReceivedUnicastPackets 0
scalar RSUExampleScenario.node[3].nic.mac1609_4 ReceivedBroadcasts 0
scalar RSUExampleScenario.node[3].nic.mac1609_4 SentPackets 0
scalar RSUExampleScenario.node[3].nic.mac1609_4 SentAcknowledgements 0
scalar RSUExampleScenario.node[3].nic.mac1609_4 RetriesExceeded 0
scalar RSUExampleScenario.node[3].nic.mac1609_4 SNIRLostPackets 0
scalar RSUExampleScenario.node[3].nic.mac1609_4 RXTXLostPackets 0
scalar RSUExampleScenario.node[3].nic.mac1609_4 TotalLostPackets 0
scalar RSUExampleScenario.node[3].nic.mac1609_4 DroppedPacketsInMac 0
scalar RSUExampleScenario.node[3].nic.mac1609_4 TooLittleTime 0
scalar RSUExampleScenario.node[3].nic.mac1609_4 TimesIntoBackoff 0
scalar RSUExampleScenario.node[3].nic.mac1609_4 SlotsBackoff 0
scalar RSUExampleScenario.node[3].nic.mac1609_4 NumInternalContention 0
scalar RSUExampleScenario.node[3].nic.mac1609_4 totalBusyTime 0
scalar RSUExampleScenario.node[3].nic.mac1609_4 retriesExceeded:count 0
attr source org_car2x_veins_modules_mac_sigRetriesExceeded
scalar RSUExampleScenario.node[3].nic.mac1609_4 sentAcks:count 0
attr source org_car2x_veins_modules_mac_sigSentAck
scalar RSUExampleScenario.node[3].nic.mac1609_4 sentPackets:count 0
attr source org_car2x_veins_modules_mac_sigSentPacket
scalar RSUExampleScenario.node[3].nic.mac1609_4 collisions:count 0
attr source org_car2x_veins_modules_mac_sigCollision
scalar RSUExampleScenario.node[3].nic.mac1609_4 channelBusy:timeavg 0
attr source org_car2x_veins_modules_mac_sigChannelBusy
scalar RSUExampleScenario.node[3].veinsmobility startTime 3
scalar RSUExampleScenario.node[3].veinsmobility totalTime 40
scalar RSUExampleScenario.node[3].veinsmobility stopTime 43
scalar RSUExampleScenario.node[3].veinsmobility minSpeed 0.8
scalar RSUExampleScenario.node[3].veinsmobility maxSpeed 22.22
scalar RSUExampleScenario.node[3].veinsmobility totalDistance 524.30352421537
scalar RSUExampleScenario.node[3].veinsmobility totalCO2Emission 142.79792144445
scalar RSUExampleScenario.node[4].appl generatedWSMs 0
scalar RSUExampleScenario.node[4].appl receivedWSMs 0
scalar RSUExampleScenario.node[4].appl generatedBSMs 0
scalar RSUExampleScenario.node[4].appl receivedBSMs 0
scalar RSUExampleScenario.node[4].appl generatedWSAs 0
scalar RSUExampleScenario.node[4].appl receivedWSAs 0
scalar RSUExampleScenario.node[4].nic.phy80211p busyTime 0
scalar RSUExampleScenario.node[4].nic.mac1609_4 ReceivedUnicastPackets 0
scalar RSUExampleScenario.node[4].nic.mac1609_4 ReceivedBroadcasts 0
scalar RSUExampleScenario.node[4].nic.mac1609_4 SentPackets 0
scalar RSUExampleScenario.node[4].nic.mac1609_4 SentAcknowledgements 0
scalar RSUExampleScenario.node[4].nic.mac1609_4 RetriesExceeded 0
scalar RSUExampleScenario.node[4].nic.mac1609_4 SNIRLostPackets 0
scalar RSUExampleScenario.node[4].nic.mac1609_4 RXTXLostPackets 0
scalar RSUExampleScenario.node[4].nic.mac1609_4 TotalLostPackets 0
scalar RSUExampleScenario.node[4].nic.mac1609_4 DroppedPacketsInMac 0
scalar RSUExampleScenario.node[4].nic.mac1609_4 TooLittleTime 0
scalar RSUExampleScenario.node[4].nic.mac1609_4 TimesIntoBackoff 0
scalar RSUExampleScenario.node[4].nic.mac1609_4 SlotsBackoff 0
scalar RSUExampleScenario.node[4].nic.mac1609_4 NumInternalContention 0
scalar RSUExampleScenario.node[4].nic.mac1609_4 totalBusyTime 0
scalar RSUExampleScenario.node[4].nic.mac1609_4 retriesExceeded:count 0
attr source org_car2x_veins_modules_mac_sigRetriesExceeded
scalar RSUExampleScenario.node[4].nic.mac1609_4 sentAcks:count 0
attr source org_car2x_veins_modules_mac_sigSentAck
scalar RSUExampleScenario.node[4].nic.mac1609_4 sentPackets:count 0
attr source org_car2x_veins_modules_mac_sigSentPacket
scalar RSUExampleScenario.node[4].nic.mac1609_4 collisions:count 0
attr source org_car2x_veins_modules_mac_sigCollision
scalar RSUExampleScenario.node[4].nic.mac1609_4 channelBusy:timeavg 0
attr source org_car2x_veins_modules_mac_sigChannelBusy
scalar RSUExampleScenario.node[4].veinsmobility startTime 4
scalar RSUExampleScenario.node[4].veinsmobility totalTime 39
scalar RSUExampleScenario.node[4].veinsmobility stopTime 43
scalar RSUExampleScenario.node[4].veinsmobility minSpeed 0.8
scalar RSUExampleScenario.node[4].veinsmobility maxSpeed 22.22
scalar RSUExampleScenario.node[4].veinsmobility totalDistance 445.58468543602
scalar RSUExampleScenario.node[4].veinsmobility totalCO2Emission 142.2194039346
scalar RSUExampleScenario.node[5].appl generatedWSMs 0
scalar RSUExampleScenario.node[5].appl receivedWSMs 0
scalar RSUExampleScenario.node[5].appl generatedBSMs 0
scalar RSUExampleScenario.node[5].appl receivedBSMs 0
scalar RSUExampleScenario.node[5].appl generatedWSAs 0
scalar RSUExampleScenario.node[5].appl receivedWSAs 0
scalar RSUExampleScenario.node[5].nic.phy80211p busyTime 0
scalar RSUExampleScenario.node[5].nic.mac1609_4 ReceivedUnicastPackets 0
scalar RSUExampleScenario.node[5].nic.mac1609_4 ReceivedBroadcasts 0
scalar RSUExampleScenario.node[5].nic.mac1609_4 SentPackets 0
scalar RSUExampleScenario.node[5].nic.mac1609_4 SentAcknowledgements 0
scalar RSUExampleScenario.node[5].nic.mac1609_4 RetriesExceeded 0
scalar RSUExampleScenario.node[5].nic.mac1609_4 SNIRLostPackets 0
scalar RSUExampleScenario.node[5].nic.mac1609_4 RXTXLostPackets 0
scalar RSUExampleScenario.node[5].nic.mac1609_4 TotalLostPackets 0
scalar RSUExampleScenario.node[5].nic.mac1609_4 DroppedPacketsInMac 0
scalar RSUExampleScenario.node[5].nic.mac1609_4 TooLittleTime 0
scalar RSUExampleScenario.node[5].nic.mac1609_4 TimesIntoBackoff 0
scalar RSUExampleScenario.node[5].nic.mac1609_4 SlotsBackoff 0
scalar RSUExampleScenario.node[5].nic.mac1609_4 NumInternalContention 0
scalar RSUExampleScenario.node[5].nic.mac1609_4 totalBusyTime 0
scalar RSUExampleScenario.node[5].nic.mac1609_4 retriesExceeded:count 0
attr source org_car2x_veins_modules_mac_sigRetriesExceeded
scalar RSUExampleScenario.node[5].nic.mac1609_4 sentAcks:count 0
attr source org_car2x_veins_modules_mac_sigSentAck
scalar RSUExampleScenario.node[5].nic.mac1609_4 sentPackets:count 0
attr source org_car2x_veins_modules_mac_sigSentPacket
scalar RSUExampleScenario.node[5].nic.mac1609_4 collisions:count 0
attr source org_car2x_veins_modules_mac_sigCollision
scalar RSUExampleScenario.node[5].nic.mac1609_4 channelBusy:timeavg 0
attr source org_car2x_veins_modules_mac_sigChannelBusy
scalar RSUExampleScenario.node[5].veinsmobility startTime 5
scalar RSUExampleScenario.node[5].veinsmobility totalTime 38
scalar RSUExampleScenario.node[5].veinsmobility stopTime 43
scalar RSUExampleScenario.node[5].veinsmobility minSpeed 0.8
scalar RSUExampleScenario.node[5].veinsmobility maxSpeed 16.91
scalar RSUExampleScenario.node[5].veinsmobility totalDistance 315.60999836967
scalar RSUExampleScenario.node[5].veinsmobility totalCO2Emission 105.9185831193
scalar RSUExampleScenario.node[6].appl generatedWSMs 0
scalar RSUExampleScenario.node[6].appl receivedWSMs 0
scalar RSUExampleScenario.node[6].appl generatedBSMs 0
scalar RSUExampleScenario.node[6].appl receivedBSMs 0
scalar RSUExampleScenario.node[6].appl generatedWSAs 0
scalar RSUExampleScenario.node[6].appl receivedWSAs 0
scalar RSUExampleScenario.node[6].nic.phy80211p busyTime 0
scalar RSUExampleScenario.node[6].nic.mac1609_4 ReceivedUnicastPackets 0
scalar RSUExampleScenario.node[6].nic.mac1609_4 ReceivedBroadcasts 0
scalar RSUExampleScenario.node[6].nic.mac1609_4 SentPackets 0
scalar RSUExampleScenario.node[6].nic.mac1609_4 SentAcknowledgements 0
scalar RSUExampleScenario.node[6].nic.mac1609_4 RetriesExceeded 0
scalar RSUExampleScenario.node[6].nic.mac1609_4 SNIRLostPackets 0
scalar RSUExampleScenario.node[6].nic.mac1609_4 RXTXLostPackets 0
scalar RSUExampleScenario.node[6].nic.mac1609_4 TotalLostPackets 0
scalar RSUExampleScenario.node[6].nic.mac1609_4 DroppedPacketsInMac 0
scalar RSUExampleScenario.node[6].nic.mac1609_4 TooLittleTime 0
scalar RSUExampleScenario.node[6].nic.mac1609_4 TimesIntoBackoff 0
scalar RSUExampleScenario.node[6].nic.mac1609_4 SlotsBackoff 0
scalar RSUExampleScenario.node[6].nic.mac1609_4 NumInternalContention 0
scalar RSUExampleScenario.node[6].nic.mac1609_4 totalBusyTime 0
scalar RSUExampleScenario.node[6].nic.mac1609_4 retriesExceeded:count 0
attr source org_car2x_veins_modules_mac_sigRetriesExceeded
scalar RSUExampleScenario.node[6].nic.mac1609_4 sentAcks:count 0
attr source org_car2x_veins_modules_mac_sigSentAck
scalar RSUExampleScenario.node[6].nic.mac1609_4 sentPackets:count 0
attr source org_car2x_veins_modules_mac_sigSentPacket
scalar RSUExampleScenario.node[6].nic.mac1609_4 collisions:count 0
attr source org_car2x_veins_modules_mac_sigCollision
scalar RSUExampleScenario.node[6].nic.mac1609_4 channelBusy:timeavg 0
attr source org_car2x_veins_modules_mac_sigChannelBusy
scalar RSUExampleScenario.node[6].veinsmobility startTime 6
scalar RSUExampleScenario.node[6].veinsmobility totalTime 37
scalar RSUExampleScenario.node[6].veinsmobility stopTime 43
scalar RSUExampleScenario.node[6].veinsmobility minSpeed 0.8
scalar RSUExampleScenario.node[6].veinsmobility maxSpeed 14.31
scalar RSUExampleScenario.node[6].veinsmobility totalDistance 293.21606193536
scalar RSUExampleScenario.node[6].veinsmobility totalCO2Emission 99.217180701353
scalar RSUExampleScenario.node[7].appl generatedWSMs 0
scalar RSUExampleScenario.node[7].appl receivedWSMs 0
scalar RSUExampleScenario.node[7].appl generatedBSMs 0
scalar RSUExampleScenario.node[7].appl receivedBSMs 0
scalar RSUExampleScenario.node[7].appl generatedWSAs 0
scalar RSUExampleScenario.node[7].appl receivedWSAs 0
scalar RSUExampleScenario.node[7].nic.phy80211p busyTime 0
scalar RSUExampleScenario.node[7].nic.mac1609_4 ReceivedUnicastPackets 0
scalar RSUExampleScenario.node[7].nic.mac1609_4 ReceivedBroadcasts 0
scalar RSUExampleScenario.node[7].nic.mac1609_4 SentPackets 0
scalar RSUExampleScenario.node[7].nic.mac1609_4 SentAcknowledgements 0
scalar RSUExampleScenario.node[7].nic.mac1609_4 RetriesExceeded 0
scalar RSUExampleScenario.node[7].nic.mac1609_4 SNIRLostPackets 0
scalar RSUExampleScenario.node[7].nic.mac1609_4 RXTXLostPackets 0
scalar RSUExampleScenario.node[7].nic.mac1609_4 TotalLostPackets 0
scalar RSUExampleScenario.node[7].nic.mac1609_4 DroppedPacketsInMac 0
scalar RSUExampleScenario.node[7].nic.mac1609_4 TooLittleTime 0
scalar RSUExampleScenario.node[7].nic.mac1609_4 TimesIntoBackoff 0
scalar RSUExampleScenario.node[7].nic.mac1609_4 SlotsBackoff 0
scalar RSUExampleScenario.node[7].nic.mac1609_4 NumInternalContention 0
scalar RSUExampleScenario.node[7].nic.mac1609_4 totalBusyTime 0
scalar RSUExampleScenario.node[7].nic.mac1609_4 retriesExceeded:count 0
attr source org_car2x_veins_modules_mac_sigRetriesExceeded
scalar RSUExampleScenario.node[7].nic.mac1609_4 sentAcks:count 0
attr source org_car2x_veins_modules_mac_sigSentAck
scalar RSUExampleScenario.node[7].nic.mac1609_4 sentPackets:count 0
attr source org_car2x_veins_modules_mac_sigSentPacket
scalar RSUExampleScenario.node[7].nic.mac1609_4 collisions:count 0
attr source org_car2x_veins_modules_mac_sigCollision
scalar RSUExampleScenario.node[7].nic.mac1609_4 channelBusy:timeavg 0
attr source org_car2x_veins_modules_mac_sigChannelBusy
scalar RSUExampleScenario.node[7].veinsmobility startTime 7
scalar RSUExampleScenario.node[7].veinsmobility totalTime 36
scalar RSUExampleScenario.node[7].veinsmobility stopTime 43
scalar RSUExampleScenario.node[7].veinsmobility minSpeed 0.8
scalar RSUExampleScenario.node[7].veinsmobility maxSpeed 17.58
scalar RSUExampleScenario.node[7].veinsmobility totalDistance 345.32594000682
scalar RSUExampleScenario.node[7].veinsmobility totalCO2Emission 119.22406610996
scalar RSUExampleScenario.node[8].appl generatedWSMs 0
scalar RSUExampleScenario.node[8].appl receivedWSMs 0
scalar RSUExampleScenario.node[8].appl generatedBSMs 0
scalar RSUExampleScenario.node[8].appl receivedBSMs 0
scalar RSUExampleScenario.node[8].appl generatedWSAs 0
scalar RSUExampleScenario.node[8].appl receivedWSAs 0
scalar RSUExampleScenario.node[8].nic.phy80211p busyTime 0
scalar RSUExampleScenario.node[8].nic.mac1609_4 ReceivedUnicastPackets 0
scalar RSUExampleScenario.node[8].nic.mac1609_4 ReceivedBroadcasts 0
scalar RSUExampleScenario.node[8].nic.mac1609_4 SentPackets 0
scalar RSUExampleScenario.node[8].nic.mac1609_4 SentAcknowledgements 0
scalar RSUExampleScenario.node[8].nic.mac1609_4 RetriesExceeded 0
scalar RSUExampleScenario.node[8].nic.mac1609_4 SNIRLostPackets 0
scalar RSUExampleScenario.node[8].nic.mac1609_4 RXTXLostPackets 0
scalar RSUExampleScenario.node[8].nic.mac1609_4 TotalLostPackets 0
scalar RSUExampleScenario.node[8].nic.mac1609_4 DroppedPacketsInMac 0
scalar RSUExampleScenario.node[8].nic.mac1609_4 TooLittleTime 0
scalar RSUExampleScenario.node[8].nic.mac1609_4 TimesIntoBackoff 0
scalar RSUExampleScenario.node[8].nic.mac1609_4 SlotsBackoff 0
scalar RSUExampleScenario.node[8].nic.mac1609_4 NumInternalContention 0
scalar RSUExampleScenario.node[8].nic.mac1609_4 totalBusyTime 0
scalar RSUExampleScenario.node[8].nic.mac1609_4 retriesExceeded:count 0
attr source org_car2x_veins_modules_mac_sigRetriesExceeded
scalar RSUExampleScenario.node[8].nic.mac1609_4 sentAcks:count 0
attr source org_car2x_veins_modules_mac_sigSentAck
scalar RSUExampleScenario.node[8].nic.mac1609_4 sentPackets:count 0
attr source org_car2x_veins_modules_mac_sigSentPacket
scalar RSUExampleScenario.node[8].nic.mac1609_4 collisions:count 0
attr source org_car2x_veins_modules_mac_sigCollision
scalar RSUExampleScenario.node[8].nic.mac1609_4 channelBusy:timeavg 0
attr source org_car2x_veins_modules_mac_sigChannelBusy
scalar RSUExampleScenario.node[8].veinsmobility startTime 8
scalar RSUExampleScenario.node[8].veinsmobility totalTime 35
scalar RSUExampleScenario.node[8].veinsmobility stopTime 43
[...]
attr source org_car2x_veins_modules_mac_sigCollision
scalar RSUExampleScenario.node[33].nic.mac1609_4 channelBusy:timeavg 0
attr source org_car2x_veins_modules_mac_sigChannelBusy
scalar RSUExampleScenario.node[33].veinsmobility startTime 35
scalar RSUExampleScenario.node[33].veinsmobility totalTime 8
scalar RSUExampleScenario.node[33].veinsmobility stopTime 43
scalar RSUExampleScenario.node[33].veinsmobility minSpeed 0.8
scalar RSUExampleScenario.node[33].veinsmobility maxSpeed 6.4
scalar RSUExampleScenario.node[33].veinsmobility totalDistance 28.804085475772
scalar RSUExampleScenario.node[33].veinsmobility totalCO2Emission 14.580370892595
scalar RSUExampleScenario.node[34].appl generatedWSMs 0
scalar RSUExampleScenario.node[34].appl receivedWSMs 0
scalar RSUExampleScenario.node[34].appl generatedBSMs 0
scalar RSUExampleScenario.node[34].appl receivedBSMs 0
scalar RSUExampleScenario.node[34].appl generatedWSAs 0
scalar RSUExampleScenario.node[34].appl receivedWSAs 0
scalar RSUExampleScenario.node[34].nic.phy80211p busyTime 0
scalar RSUExampleScenario.node[34].nic.mac1609_4 ReceivedUnicastPackets 0
scalar RSUExampleScenario.node[34].nic.mac1609_4 ReceivedBroadcasts 0
scalar RSUExampleScenario.node[34].nic.mac1609_4 SentPackets 0
scalar RSUExampleScenario.node[34].nic.mac1609_4 SentAcknowledgements 0
scalar RSUExampleScenario.node[34].nic.mac1609_4 RetriesExceeded 0
scalar RSUExampleScenario.node[34].nic.mac1609_4 SNIRLostPackets 0
scalar RSUExampleScenario.node[34].nic.mac1609_4 RXTXLostPackets 0
scalar RSUExampleScenario.node[34].nic.mac1609_4 TotalLostPackets 0
scalar RSUExampleScenario.node[34].nic.mac1609_4 DroppedPacketsInMac 0
scalar RSUExampleScenario.node[34].nic.mac1609_4 TooLittleTime 0
scalar RSUExampleScenario.node[34].nic.mac1609_4 TimesIntoBackoff 0
scalar RSUExampleScenario.node[34].nic.mac1609_4 SlotsBackoff 0
scalar RSUExampleScenario.node[34].nic.mac1609_4 NumInternalContention 0
scalar RSUExampleScenario.node[34].nic.mac1609_4 totalBusyTime 0
scalar RSUExampleScenario.node[34].nic.mac1609_4 retriesExceeded:count 0
attr source org_car2x_veins_modules_mac_sigRetriesExceeded
scalar RSUExampleScenario.node[34].nic.mac1609_4 sentAcks:count 0
attr source org_car2x_veins_modules_mac_sigSentAck
scalar RSUExampleScenario.node[34].nic.mac1609_4 sentPackets:count 0
attr source org_car2x_veins_modules_mac_sigSentPacket
scalar RSUExampleScenario.node[34].nic.mac1609_4 collisions:count 0
attr source org_car2x_veins_modules_mac_sigCollision
scalar RSUExampleScenario.node[34].nic.mac1609_4 channelBusy:timeavg 0
attr source org_car2x_veins_modules_mac_sigChannelBusy
scalar RSUExampleScenario.node[34].veinsmobility startTime 36
scalar RSUExampleScenario.node[34].veinsmobility totalTime 7
scalar RSUExampleScenario.node[34].veinsmobility stopTime 43
scalar RSUExampleScenario.node[34].veinsmobility minSpeed 0.8
scalar RSUExampleScenario.node[34].veinsmobility maxSpeed 5.6
scalar RSUExampleScenario.node[34].veinsmobility totalDistance 22.399727235554
scalar RSUExampleScenario.node[34].veinsmobility totalCO2Emission 11.903498323476
scalar RSUExampleScenario.node[35].appl generatedWSMs 0
scalar RSUExampleScenario.node[35].appl receivedWSMs 0
scalar RSUExampleScenario.node[35].appl generatedBSMs 0
scalar RSUExampleScenario.node[35].appl receivedBSMs 0
scalar RSUExampleScenario.node[35].appl generatedWSAs 0
scalar RSUExampleScenario.node[35].appl receivedWSAs 0
scalar RSUExampleScenario.node[35].nic.phy80211p busyTime 0
scalar RSUExampleScenario.node[35].nic.mac1609_4 ReceivedUnicastPackets 0
scalar RSUExampleScenario.node[35].nic.mac1609_4 ReceivedBroadcasts 0
scalar RSUExampleScenario.node[35].nic.mac1609_4 SentPackets 0
scalar RSUExampleScenario.node[35].nic.mac1609_4 SentAcknowledgements 0
scalar RSUExampleScenario.node[35].nic.mac1609_4 RetriesExceeded 0
scalar RSUExampleScenario.node[35].nic.mac1609_4 SNIRLostPackets 0
scalar RSUExampleScenario.node[35].nic.mac1609_4 RXTXLostPackets 0
scalar RSUExampleScenario.node[35].nic.mac1609_4 TotalLostPackets 0
scalar RSUExampleScenario.node[35].nic.mac1609_4 DroppedPacketsInMac 0
scalar RSUExampleScenario.node[35].nic.mac1609_4 TooLittleTime 0
scalar RSUExampleScenario.node[35].nic.mac1609_4 TimesIntoBackoff 0
scalar RSUExampleScenario.node[35].nic.mac1609_4 SlotsBackoff 0
scalar RSUExampleScenario.node[35].nic.mac1609_4 NumInternalContention 0
scalar RSUExampleScenario.node[35].nic.mac1609_4 totalBusyTime 0
scalar RSUExampleScenario.node[35].nic.mac1609_4 retriesExceeded:count 0
attr source org_car2x_veins_modules_mac_sigRetriesExceeded
scalar RSUExampleScenario.node[35].nic.mac1609_4 sentAcks:count 0
attr source org_car2x_veins_modules_mac_sigSentAck
scalar RSUExampleScenario.node[35].nic.mac1609_4 sentPackets:count 0
attr source org_car2x_veins_modules_mac_sigSentPacket
scalar RSUExampleScenario.node[35].nic.mac1609_4 collisions:count 0
attr source org_car2x_veins_modules_mac_sigCollision
scalar RSUExampleScenario.node[35].nic.mac1609_4 channelBusy:timeavg 0
attr source org_car2x_veins_modules_mac_sigChannelBusy
scalar RSUExampleScenario.node[35].veinsmobility startTime 37
scalar RSUExampleScenario.node[35].veinsmobility totalTime 6
scalar RSUExampleScenario.node[35].veinsmobility stopTime 43
scalar RSUExampleScenario.node[35].veinsmobility minSpeed 0.8
scalar RSUExampleScenario.node[35].veinsmobility maxSpeed 4.8
scalar RSUExampleScenario.node[35].veinsmobility totalDistance 16.795815820095
scalar RSUExampleScenario.node[35].veinsmobility totalCO2Emission 9.4274511140864
scalar RSUExampleScenario.node[36].appl generatedWSMs 0
scalar RSUExampleScenario.node[36].appl receivedWSMs 0
scalar RSUExampleScenario.node[36].appl generatedBSMs 0
scalar RSUExampleScenario.node[36].appl receivedBSMs 0
scalar RSUExampleScenario.node[36].appl generatedWSAs 0
scalar RSUExampleScenario.node[36].appl receivedWSAs 0
scalar RSUExampleScenario.node[36].nic.phy80211p busyTime 0
scalar RSUExampleScenario.node[36].nic.mac1609_4 ReceivedUnicastPackets 0
scalar RSUExampleScenario.node[36].nic.mac1609_4 ReceivedBroadcasts 0
scalar RSUExampleScenario.node[36].nic.mac1609_4 SentPackets 0
scalar RSUExampleScenario.node[36].nic.mac1609_4 SentAcknowledgements 0
scalar RSUExampleScenario.node[36].nic.mac1609_4 RetriesExceeded 0
scalar RSUExampleScenario.node[36].nic.mac1609_4 SNIRLostPackets 0
scalar RSUExampleScenario.node[36].nic.mac1609_4 RXTXLostPackets 0
scalar RSUExampleScenario.node[36].nic.mac1609_4 TotalLostPackets 0
scalar RSUExampleScenario.node[36].nic.mac1609_4 DroppedPacketsInMac 0
scalar RSUExampleScenario.node[36].nic.mac1609_4 TooLittleTime 0
scalar RSUExampleScenario.node[36].nic.mac1609_4 TimesIntoBackoff 0
scalar RSUExampleScenario.node[36].nic.mac1609_4 SlotsBackoff 0
scalar RSUExampleScenario.node[36].nic.mac1609_4 NumInternalContention 0
scalar RSUExampleScenario.node[36].nic.mac1609_4 totalBusyTime 0
scalar RSUExampleScenario.node[36].nic.mac1609_4 retriesExceeded:count 0
attr source org_car2x_veins_modules_mac_sigRetriesExceeded
scalar RSUExampleScenario.node[36].nic.mac1609_4 sentAcks:count 0
attr source org_car2x_veins_modules_mac_sigSentAck
scalar RSUExampleScenario.node[36].nic.mac1609_4 sentPackets:count 0
attr source org_car2x_veins_modules_mac_sigSentPacket
scalar RSUExampleScenario.node[36].nic.mac1609_4 collisions:count 0
attr source org_car2x_veins_modules_mac_sigCollision
scalar RSUExampleScenario.node[36].nic.mac1609_4 channelBusy:timeavg 0
attr source org_car2x_veins_modules_mac_sigChannelBusy
scalar RSUExampleScenario.node[36].veinsmobility startTime 38
scalar RSUExampleScenario.node[36].veinsmobility totalTime 5
scalar RSUExampleScenario.node[36].veinsmobility stopTime 43
scalar RSUExampleScenario.node[36].veinsmobility minSpeed 0.8
scalar RSUExampleScenario.node[36].veinsmobility maxSpeed 4
scalar RSUExampleScenario.node[36].veinsmobility totalDistance 12.003082988567
scalar RSUExampleScenario.node[36].veinsmobility totalCO2Emission 7.1502427489894
scalar RSUExampleScenario.node[37].appl generatedWSMs 0
scalar RSUExampleScenario.node[37].appl receivedWSMs 0
scalar RSUExampleScenario.node[37].appl generatedBSMs 0
scalar RSUExampleScenario.node[37].appl receivedBSMs 0
scalar RSUExampleScenario.node[37].appl generatedWSAs 0
scalar RSUExampleScenario.node[37].appl receivedWSAs 0
scalar RSUExampleScenario.node[37].nic.phy80211p busyTime 0
scalar RSUExampleScenario.node[37].nic.mac1609_4 ReceivedUnicastPackets 0
scalar RSUExampleScenario.node[37].nic.mac1609_4 ReceivedBroadcasts 0
scalar RSUExampleScenario.node[37].nic.mac1609_4 SentPackets 0
scalar RSUExampleScenario.node[37].nic.mac1609_4 SentAcknowledgements 0
scalar RSUExampleScenario.node[37].nic.mac1609_4 RetriesExceeded 0
scalar RSUExampleScenario.node[37].nic.mac1609_4 SNIRLostPackets 0
scalar RSUExampleScenario.node[37].nic.mac1609_4 RXTXLostPackets 0
scalar RSUExampleScenario.node[37].nic.mac1609_4 TotalLostPackets 0
scalar RSUExampleScenario.node[37].nic.mac1609_4 DroppedPacketsInMac 0
scalar RSUExampleScenario.node[37].nic.mac1609_4 TooLittleTime 0
scalar RSUExampleScenario.node[37].nic.mac1609_4 TimesIntoBackoff 0
scalar RSUExampleScenario.node[37].nic.mac1609_4 SlotsBackoff 0
scalar RSUExampleScenario.node[37].nic.mac1609_4 NumInternalContention 0
scalar RSUExampleScenario.node[37].nic.mac1609_4 totalBusyTime 0
scalar RSUExampleScenario.node[37].nic.mac1609_4 retriesExceeded:count 0
attr source org_car2x_veins_modules_mac_sigRetriesExceeded
scalar RSUExampleScenario.node[37].nic.mac1609_4 sentAcks:count 0
attr source org_car2x_veins_modules_mac_sigSentAck
scalar RSUExampleScenario.node[37].nic.mac1609_4 sentPackets:count 0
attr source org_car2x_veins_modules_mac_sigSentPacket
scalar RSUExampleScenario.node[37].nic.mac1609_4 collisions:count 0
attr source org_car2x_veins_modules_mac_sigCollision
scalar RSUExampleScenario.node[37].nic.mac1609_4 channelBusy:timeavg 0
attr source org_car2x_veins_modules_mac_sigChannelBusy
scalar RSUExampleScenario.node[37].veinsmobility startTime 39
scalar RSUExampleScenario.node[37].veinsmobility totalTime 4
scalar RSUExampleScenario.node[37].veinsmobility stopTime 43
scalar RSUExampleScenario.node[37].veinsmobility minSpeed 0.8
scalar RSUExampleScenario.node[37].veinsmobility maxSpeed 3.2
scalar RSUExampleScenario.node[37].veinsmobility totalDistance 8.0050220134983
scalar RSUExampleScenario.node[37].veinsmobility totalCO2Emission 5.0701705006694
scalar RSUExampleScenario.node[38].appl generatedWSMs 0
scalar RSUExampleScenario.node[38].appl receivedWSMs 0
scalar RSUExampleScenario.node[38].appl generatedBSMs 0
scalar RSUExampleScenario.node[38].appl receivedBSMs 0
scalar RSUExampleScenario.node[38].appl generatedWSAs 0
scalar RSUExampleScenario.node[38].appl receivedWSAs 0
scalar RSUExampleScenario.node[38].nic.phy80211p busyTime 0
scalar RSUExampleScenario.node[38].nic.mac1609_4 ReceivedUnicastPackets 0
scalar RSUExampleScenario.node[38].nic.mac1609_4 ReceivedBroadcasts 0
scalar RSUExampleScenario.node[38].nic.mac1609_4 SentPackets 0
scalar RSUExampleScenario.node[38].nic.mac1609_4 SentAcknowledgements 0
scalar RSUExampleScenario.node[38].nic.mac1609_4 RetriesExceeded 0
scalar RSUExampleScenario.node[38].nic.mac1609_4 SNIRLostPackets 0
scalar RSUExampleScenario.node[38].nic.mac1609_4 RXTXLostPackets 0
scalar RSUExampleScenario.node[38].nic.mac1609_4 TotalLostPackets 0
scalar RSUExampleScenario.node[38].nic.mac1609_4 DroppedPacketsInMac 0
scalar RSUExampleScenario.node[38].nic.mac1609_4 TooLittleTime 0
scalar RSUExampleScenario.node[38].nic.mac1609_4 TimesIntoBackoff 0
scalar RSUExampleScenario.node[38].nic.mac1609_4 SlotsBackoff 0
scalar RSUExampleScenario.node[38].nic.mac1609_4 NumInternalContention 0
scalar RSUExampleScenario.node[38].nic.mac1609_4 totalBusyTime 0
scalar RSUExampleScenario.node[38].nic.mac1609_4 retriesExceeded:count 0
attr source org_car2x_veins_modules_mac_sigRetriesExceeded
scalar RSUExampleScenario.node[38].nic.mac1609_4 sentAcks:count 0
attr source org_car2x_veins_modules_mac_sigSentAck
scalar RSUExampleScenario.node[38].nic.mac1609_4 sentPackets:count 0
attr source org_car2x_veins_modules_mac_sigSentPacket
scalar RSUExampleScenario.node[38].nic.mac1609_4 collisions:count 0
attr source org_car2x_veins_modules_mac_sigCollision
scalar RSUExampleScenario.node[38].nic.mac1609_4 channelBusy:timeavg 0
attr source org_car2x_veins_modules_mac_sigChannelBusy
scalar RSUExampleScenario.node[38].veinsmobility startTime 40
scalar RSUExampleScenario.node[38].veinsmobility totalTime 3
scalar RSUExampleScenario.node[38].veinsmobility stopTime 43
scalar RSUExampleScenario.node[38].veinsmobility minSpeed 0.8
scalar RSUExampleScenario.node[38].veinsmobility maxSpeed 2.4
scalar RSUExampleScenario.node[38].veinsmobility totalDistance 4.8002867982497
scalar RSUExampleScenario.node[38].veinsmobility totalCO2Emission 3.1858154295296
scalar RSUExampleScenario.node[39].appl generatedWSMs 0
scalar RSUExampleScenario.node[39].appl receivedWSMs 0
scalar RSUExampleScenario.node[39].appl generatedBSMs 0
scalar RSUExampleScenario.node[39].appl receivedBSMs 0
scalar RSUExampleScenario.node[39].appl generatedWSAs 0
scalar RSUExampleScenario.node[39].appl receivedWSAs 0
scalar RSUExampleScenario.node[39].nic.phy80211p busyTime 0
scalar RSUExampleScenario.node[39].nic.mac1609_4 ReceivedUnicastPackets 0
scalar RSUExampleScenario.node[39].nic.mac1609_4 ReceivedBroadcasts 0
scalar RSUExampleScenario.node[39].nic.mac1609_4 SentPackets 0
scalar RSUExampleScenario.node[39].nic.mac1609_4 SentAcknowledgements 0
scalar RSUExampleScenario.node[39].nic.mac1609_4 RetriesExceeded 0
scalar RSUExampleScenario.node[39].nic.mac1609_4 SNIRLostPackets 0
scalar RSUExampleScenario.node[39].nic.mac1609_4 RXTXLostPackets 0
scalar RSUExampleScenario.node[39].nic.mac1609_4 TotalLostPackets 0
scalar RSUExampleScenario.node[39].nic.mac1609_4 DroppedPacketsInMac 0
scalar RSUExampleScenario.node[39].nic.mac1609_4 TooLittleTime 0
scalar RSUExampleScenario.node[39].nic.mac1609_4 TimesIntoBackoff 0
scalar RSUExampleScenario.node[39].nic.mac1609_4 SlotsBackoff 0
scalar RSUExampleScenario.node[39].nic.mac1609_4 NumInternalContention 0
scalar RSUExampleScenario.node[39].nic.mac1609_4 totalBusyTime 0
scalar RSUExampleScenario.node[39].nic.mac1609_4 retriesExceeded:count 0
attr source org_car2x_veins_modules_mac_sigRetriesExceeded
scalar RSUExampleScenario.node[39].nic.mac1609_4 sentAcks:count 0
attr source org_car2x_veins_modules_mac_sigSentAck
scalar RSUExampleScenario.node[39].nic.mac1609_4 sentPackets:count 0
attr source org_car2x_veins_modules_mac_sigSentPacket
scalar RSUExampleScenario.node[39].nic.mac1609_4 collisions:count 0
attr source org_car2x_veins_modules_mac_sigCollision
scalar RSUExampleScenario.node[39].nic.mac1609_4 channelBusy:timeavg 0
attr source org_car2x_veins_modules_mac_sigChannelBusy
scalar RSUExampleScenario.node[39].veinsmobility startTime 41
scalar RSUExampleScenario.node[39].veinsmobility totalTime 2
scalar RSUExampleScenario.node[39].veinsmobility stopTime 43
scalar RSUExampleScenario.node[39].veinsmobility minSpeed 0.8
scalar RSUExampleScenario.node[39].veinsmobility maxSpeed 1.6
scalar RSUExampleScenario.node[39].veinsmobility totalDistance 2.4001348584737
scalar RSUExampleScenario.node[39].veinsmobility totalCO2Emission 1.4960423838925
scalar RSUExampleScenario.node[40].appl generatedWSMs 0
scalar RSUExampleScenario.node[40].appl receivedWSMs 0
scalar RSUExampleScenario.node[40].appl generatedBSMs 0
scalar RSUExampleScenario.node[40].appl receivedBSMs 0
scalar RSUExampleScenario.node[40].appl generatedWSAs 0
scalar RSUExampleScenario.node[40].appl receivedWSAs 0
scalar RSUExampleScenario.node[40].nic.phy80211p busyTime 0
scalar RSUExampleScenario.node[40].nic.mac1609_4 ReceivedUnicastPackets 0
scalar RSUExampleScenario.node[40].nic.mac1609_4 ReceivedBroadcasts 0
scalar RSUExampleScenario.node[40].nic.mac1609_4 SentPackets 0
scalar RSUExampleScenario.node[40].nic.mac1609_4 SentAcknowledgements 0
scalar RSUExampleScenario.node[40].nic.mac1609_4 RetriesExceeded 0
scalar RSUExampleScenario.node[40].nic.mac1609_4 SNIRLostPackets 0
scalar RSUExampleScenario.node[40].nic.mac1609_4 RXTXLostPackets 0
scalar RSUExampleScenario.node[40].nic.mac1609_4 TotalLostPackets 0
scalar RSUExampleScenario.node[40].nic.mac1609_4 DroppedPacketsInMac 0
scalar RSUExampleScenario.node[40].nic.mac1609_4 TooLittleTime 0
scalar RSUExampleScenario.node[40].nic.mac1609_4 TimesIntoBackoff 0
scalar RSUExampleScenario.node[40].nic.mac1609_4 SlotsBackoff 0
scalar RSUExampleScenario.node[40].nic.mac1609_4 NumInternalContention 0
scalar RSUExampleScenario.node[40].nic.mac1609_4 totalBusyTime 0
scalar RSUExampleScenario.node[40].nic.mac1609_4 retriesExceeded:count 0
attr source org_car2x_veins_modules_mac_sigRetriesExceeded
scalar RSUExampleScenario.node[40].nic.mac1609_4 sentAcks:count 0
attr source org_car2x_veins_modules_mac_sigSentAck
scalar RSUExampleScenario.node[40].nic.mac1609_4 sentPackets:count 0
attr source org_car2x_veins_modules_mac_sigSentPacket
scalar RSUExampleScenario.node[40].nic.mac1609_4 collisions:count 0
attr source org_car2x_veins_modules_mac_sigCollision
scalar RSUExampleScenario.node[40].nic.mac1609_4 channelBusy:timeavg 0
attr source org_car2x_veins_modules_mac_sigChannelBusy
scalar RSUExampleScenario.node[40].veinsmobility startTime 42
scalar RSUExampleScenario.node[40].veinsmobility totalTime 1
scalar RSUExampleScenario.node[40].veinsmobility stopTime 43
scalar RSUExampleScenario.node[40].veinsmobility minSpeed 0.8
scalar RSUExampleScenario.node[40].veinsmobility maxSpeed 0.8
scalar RSUExampleScenario.node[40].veinsmobility totalDistance 0.80003496011047
scalar RSUExampleScenario.node[40].veinsmobility totalCO2Emission 0
scalar RSUExampleScenario.node[41].appl generatedWSMs 0
scalar RSUExampleScenario.node[41].appl receivedWSMs 0
scalar RSUExampleScenario.node[41].appl generatedBSMs 0
scalar RSUExampleScenario.node[41].appl receivedBSMs 0
scalar RSUExampleScenario.node[41].appl generatedWSAs 0
scalar RSUExampleScenario.node[41].appl receivedWSAs 0
scalar RSUExampleScenario.node[41].nic.phy80211p busyTime nan
scalar RSUExampleScenario.node[41].nic.mac1609_4 ReceivedUnicastPackets 0
scalar RSUExampleScenario.node[41].nic.mac1609_4 ReceivedBroadcasts 0
scalar RSUExampleScenario.node[41].nic.mac1609_4 SentPackets 0
scalar RSUExampleScenario.node[41].nic.mac1609_4 SentAcknowledgements 0
scalar RSUExampleScenario.node[41].nic.mac1609_4 RetriesExceeded 0
scalar RSUExampleScenario.node[41].nic.mac1609_4 SNIRLostPackets 0
scalar RSUExampleScenario.node[41].nic.mac1609_4 RXTXLostPackets 0
scalar RSUExampleScenario.node[41].nic.mac1609_4 TotalLostPackets 0
scalar RSUExampleScenario.node[41].nic.mac1609_4 DroppedPacketsInMac 0
scalar RSUExampleScenario.node[41].nic.mac1609_4 TooLittleTime 0
scalar RSUExampleScenario.node[41].nic.mac1609_4 TimesIntoBackoff 0
scalar RSUExampleScenario.node[41].nic.mac1609_4 SlotsBackoff 0
scalar RSUExampleScenario.node[41].nic.mac1609_4 NumInternalContention 0
scalar RSUExampleScenario.node[41].nic.mac1609_4 totalBusyTime 0
scalar RSUExampleScenario.node[41].nic.mac1609_4 retriesExceeded:count 0
attr source org_car2x_veins_modules_mac_sigRetriesExceeded
scalar RSUExampleScenario.node[41].nic.mac1609_4 sentAcks:count 0
attr source org_car2x_veins_modules_mac_sigSentAck
scalar RSUExampleScenario.node[41].nic.mac1609_4 sentPackets:count 0
attr source org_car2x_veins_modules_mac_sigSentPacket
scalar RSUExampleScenario.node[41].nic.mac1609_4 collisions:count 0
attr source org_car2x_veins_modules_mac_sigCollision
scalar RSUExampleScenario.node[41].nic.mac1609_4 channelBusy:timeavg nan
attr source org_car2x_veins_modules_mac_sigChannelBusy
scalar RSUExampleScenario.node[41].veinsmobility startTime 43
scalar RSUExampleScenario.node[41].veinsmobility totalTime 0
scalar RSUExampleScenario.node[41].veinsmobility stopTime 43
scalar RSUExampleScenario.node[41].veinsmobility totalDistance 0
scalar RSUExampleScenario.node[41].veinsmobility totalCO2Emission 0

