version 2
run Default-0-20250605-10:00:00-19772
attr configname Default
attr datetime 20250605-10:00:00
attr experiment Default
attr inifile omnetpp.ini
attr iterationvars ""
attr iterationvarsf ""
attr measurement ""
attr network RSUExampleScenario
attr processid 19772
attr repetition 0
attr replication #0
attr resultdir results
attr runnumber 0
attr seedset 0
param *.playgroundSizeX 12916.18m
param *.playgroundSizeY 3741.65m
param *.playgroundSizeZ 50m
param *.annotations.draw true
param *.manager.host "\"localhost\""
param *.manager.port 9999
param *.manager.autoShutdown true
param *.manager.order 1
param *.manager.updateInterval 1s
param *.manager.trafficLightModuleType "\"org.car2x.veins.nodes.TrafficLight\""
param *.tls[*].mobility.x 0
param *.tls[*].mobility.y 0
param *.tls[*].mobility.z 3
param *.tls[*].applType "\"org.car2x.veins.modules.application.traci.TraCIDemoTrafficLightApp\""
param *.tls[*].logicType "\"org.car2x.veins.modules.world.traci.trafficLight.logics.TraCITrafficLightSimpleLogic\""
param *.rsu[0].mobility.x 6315.91
param *.rsu[0].mobility.y 2125.00
param *.rsu[0].mobility.z 3
param *.rsu[*].applType "\"TraCIDemoRSU11p\""
param *.rsu[*].appl.headerLength "80 bit"
param *.rsu[*].appl.sendBeacons false
param *.rsu[*].appl.dataOnSch false
param *.rsu[*].appl.beaconInterval 1s
param *.rsu[*].appl.beaconUserPriority 7
param *.rsu[*].appl.dataUserPriority 5
param *.rsu[*].nic.phy80211p.antennaOffsetZ "0 m"
param *.rsu2[0].mobility.x 12916.18
param *.rsu2[0].mobility.y 3741.65
param *.rsu2[0].mobility.z 3
param *.rsu2[*].applType "\"TraCIDemoRSU11p\""
param *.rsu2[*].appl.headerLength "80 bit"
param *.rsu2[*].appl.sendBeacons false
param *.rsu2[*].appl.dataOnSch false
param *.rsu2[*].appl.beaconInterval 1s
param *.rsu2[*].appl.beaconUserPriority 7
param *.rsu2[*].appl.dataUserPriority 5
param *.rsu2[*].nic.phy80211p.antennaOffsetZ "0 m"
param *.rsu3[0].mobility.x 7415.91
param *.rsu3[0].mobility.y 1850.00
param *.rsu3[0].mobility.z 3
param *.rsu3[*].applType "\"TraCIDemoRSU11p\""
param *.rsu3[*].appl.headerLength "80 bit"
param *.rsu3[*].appl.sendBeacons false
param *.rsu3[*].appl.dataOnSch false
param *.rsu3[*].appl.beaconInterval 1s
param *.rsu3[*].appl.beaconUserPriority 7
param *.rsu3[*].appl.dataUserPriority 5
param *.rsu3[*].nic.phy80211p.antennaOffsetZ "0 m"
param *.rsu4[0].mobility.x 11075.6
param *.rsu4[0].mobility.y 1900.00
param *.rsu4[0].mobility.z 3
param *.rsu4[*].applType "\"TraCIDemoRSU11p\""
param *.rsu4[*].appl.headerLength "80 bit"
param *.rsu4[*].appl.sendBeacons false
param *.rsu4[*].appl.dataOnSch false
param *.rsu4[*].appl.beaconInterval 1s
param *.rsu4[*].appl.beaconUserPriority 7
param *.rsu4[*].appl.dataUserPriority 5
param *.rsu4[*].nic.phy80211p.antennaOffsetZ "0 m"
param *.rsu5[0].mobility.x 4605.00
param *.rsu5[0].mobility.y 1970.00
param *.rsu5[0].mobility.z 3
param *.rsu5[*].applType "\"TraCIDemoRSU11p\""
param *.rsu5[*].appl.headerLength "80 bit"
param *.rsu5[*].appl.sendBeacons false
param *.rsu5[*].appl.dataOnSch false
param *.rsu5[*].appl.beaconInterval 1s
param *.rsu5[*].appl.beaconUserPriority 7
param *.rsu5[*].appl.dataUserPriority 5
param *.rsu5[*].nic.phy80211p.antennaOffsetZ "0 m"
param *.rsu6[0].mobility.x 2070.91
param *.rsu6[0].mobility.y 1750.00
param *.rsu6[0].mobility.z 3
param *.rsu6[*].applType "\"TraCIDemoRSU11p\""
param *.rsu6[*].appl.headerLength "80 bit"
param *.rsu6[*].appl.sendBeacons false
param *.rsu6[*].appl.dataOnSch false
param *.rsu6[*].appl.beaconInterval 1s
param *.rsu6[*].appl.beaconUserPriority 7
param *.rsu6[*].appl.dataUserPriority 5
param *.rsu6[*].nic.phy80211p.antennaOffsetZ "0 m"
param *.rsu8[0].mobility.x 2739.00
param *.rsu8[0].mobility.y 1975.00
param *.rsu8[0].mobility.z 3
param *.rsu8[*].applType "\"TraCIDemoRSU11p\""
param *.rsu8[*].appl.headerLength "80 bit"
param *.rsu8[*].appl.sendBeacons false
param *.rsu8[*].appl.dataOnSch false
param *.rsu8[*].appl.beaconInterval 1s
param *.rsu8[*].appl.beaconUserPriority 7
param *.rsu8[*].appl.dataUserPriority 5
param *.rsu8[*].nic.phy80211p.antennaOffsetZ "0 m"
param *.rsu9[0].mobility.x 3685.99
param *.rsu9[0].mobility.y 1985.89
param *.rsu9[0].mobility.z 3
param *.rsu9[*].applType "\"TraCIDemoRSU11p\""
param *.rsu9[*].appl.headerLength "80 bit"
param *.rsu9[*].appl.sendBeacons false
param *.rsu9[*].appl.dataOnSch false
param *.rsu9[*].appl.beaconInterval 1s
param *.rsu9[*].appl.beaconUserPriority 7
param *.rsu9[*].appl.dataUserPriority 5
param *.rsu9[*].nic.phy80211p.antennaOffsetZ "0 m"
param *.connectionManager.sendDirect true
param *.connectionManager.maxInterfDist 2600m
param *.connectionManager.drawMaxIntfDist false
param *.**.nic.mac1609_4.useServiceChannel false
param *.**.nic.mac1609_4.txPower 20mW
param *.**.nic.mac1609_4.bitrate 6Mbps
param *.**.nic.phy80211p.minPowerLevel -110dBm
param *.**.nic.phy80211p.useNoiseFloor true
param *.**.nic.phy80211p.noiseFloor -98dBm
param *.**.nic.phy80211p.decider "xmldoc(\"config.xml\")"
param *.**.nic.phy80211p.analogueModels "xmldoc(\"config.xml\")"
param *.**.nic.phy80211p.usePropagationDelay true
param *.**.nic.phy80211p.antenna "xmldoc(\"antenna.xml\", \"/root/Antenna[@id='monopole']\")"
param *.node[*].nic.phy80211p.antennaOffsetY "0 m"
param *.node[*].nic.phy80211p.antennaOffsetZ "1.895 m"
param *.node[*].applType "\"TraCIDemo11p\""
param *.node[*].appl.headerLength "80 bit"
param *.node[88].appl.sendBeacons true
param *.node[*].appl.sendBeacons false
param *.node[*].appl.dataOnSch false
param *.node[*].appl.beaconInterval 1s
param *.node[*].veinsmobility.x 0
param *.node[*].veinsmobility.y 0
param *.node[*].veinsmobility.z 0
param *.node[*].veinsmobility.setHostSpeed false
param *.node[*].veinsmobility.accidentCount 0

vector 0 RSUExampleScenario.node[0].veinsmobility posx ETV
vector 1 RSUExampleScenario.node[0].veinsmobility posy ETV
vector 2 RSUExampleScenario.node[1].veinsmobility posx ETV
vector 3 RSUExampleScenario.node[1].veinsmobility posy ETV
vector 4 RSUExampleScenario.node[2].veinsmobility posx ETV
vector 5 RSUExampleScenario.node[2].veinsmobility posy ETV
vector 6 RSUExampleScenario.node[0].veinsmobility speed ETV
vector 7 RSUExampleScenario.node[1].veinsmobility speed ETV
vector 8 RSUExampleScenario.node[3].veinsmobility posx ETV
vector 9 RSUExampleScenario.node[3].veinsmobility posy ETV
vector 10 RSUExampleScenario.node[0].veinsmobility acceleration ETV
vector 11 RSUExampleScenario.node[0].veinsmobility co2emission ETV
vector 12 RSUExampleScenario.node[1].veinsmobility acceleration ETV
vector 13 RSUExampleScenario.node[1].veinsmobility co2emission ETV
vector 14 RSUExampleScenario.node[2].veinsmobility speed ETV
vector 15 RSUExampleScenario.node[4].veinsmobility posx ETV
vector 16 RSUExampleScenario.node[4].veinsmobility posy ETV
vector 17 RSUExampleScenario.node[2].veinsmobility acceleration ETV
vector 18 RSUExampleScenario.node[2].veinsmobility co2emission ETV
vector 19 RSUExampleScenario.node[3].veinsmobility speed ETV
vector 20 RSUExampleScenario.node[5].veinsmobility posx ETV
vector 21 RSUExampleScenario.node[5].veinsmobility posy ETV
vector 22 RSUExampleScenario.node[3].veinsmobility acceleration ETV
vector 23 RSUExampleScenario.node[3].veinsmobility co2emission ETV
vector 24 RSUExampleScenario.node[4].veinsmobility speed ETV
vector 25 RSUExampleScenario.node[6].veinsmobility posx ETV
vector 26 RSUExampleScenario.node[6].veinsmobility posy ETV
vector 27 RSUExampleScenario.node[4].veinsmobility acceleration ETV
vector 28 RSUExampleScenario.node[4].veinsmobility co2emission ETV
vector 29 RSUExampleScenario.node[5].veinsmobility speed ETV
vector 30 RSUExampleScenario.node[7].veinsmobility posx ETV
vector 31 RSUExampleScenario.node[7].veinsmobility posy ETV
vector 32 RSUExampleScenario.node[5].veinsmobility acceleration ETV
vector 33 RSUExampleScenario.node[5].veinsmobility co2emission ETV
vector 34 RSUExampleScenario.node[6].veinsmobility speed ETV
vector 35 RSUExampleScenario.node[8].veinsmobility posx ETV
vector 36 RSUExampleScenario.node[8].veinsmobility posy ETV
vector 37 RSUExampleScenario.node[6].veinsmobility acceleration ETV
vector 38 RSUExampleScenario.node[6].veinsmobility co2emission ETV
vector 39 RSUExampleScenario.node[7].veinsmobility speed ETV
vector 40 RSUExampleScenario.node[9].veinsmobility posx ETV
vector 41 RSUExampleScenario.node[9].veinsmobility posy ETV
vector 42 RSUExampleScenario.node[7].veinsmobility acceleration ETV
vector 43 RSUExampleScenario.node[7].veinsmobility co2emission ETV
vector 44 RSUExampleScenario.node[8].veinsmobility speed ETV
vector 45 RSUExampleScenario.node[10].veinsmobility posx ETV
vector 46 RSUExampleScenario.node[10].veinsmobility posy ETV
vector 47 RSUExampleScenario.node[8].veinsmobility acceleration ETV
vector 48 RSUExampleScenario.node[8].veinsmobility co2emission ETV
vector 49 RSUExampleScenario.node[9].veinsmobility speed ETV
vector 50 RSUExampleScenario.node[9].veinsmobility acceleration ETV
vector 51 RSUExampleScenario.node[9].veinsmobility co2emission ETV
vector 52 RSUExampleScenario.node[10].veinsmobility speed ETV
vector 53 RSUExampleScenario.node[11].veinsmobility posx ETV
vector 54 RSUExampleScenario.node[11].veinsmobility posy ETV
vector 55 RSUExampleScenario.node[10].veinsmobility acceleration ETV
vector 56 RSUExampleScenario.node[10].veinsmobility co2emission ETV
vector 57 RSUExampleScenario.node[12].veinsmobility posx ETV
vector 58 RSUExampleScenario.node[12].veinsmobility posy ETV
vector 59 RSUExampleScenario.node[11].veinsmobility speed ETV
vector 60 RSUExampleScenario.node[13].veinsmobility posx ETV
vector 61 RSUExampleScenario.node[13].veinsmobility posy ETV
vector 62 RSUExampleScenario.node[11].veinsmobility acceleration ETV
vector 63 RSUExampleScenario.node[11].veinsmobility co2emission ETV
vector 64 RSUExampleScenario.node[12].veinsmobility speed ETV
vector 65 RSUExampleScenario.node[14].veinsmobility posx ETV
vector 66 RSUExampleScenario.node[14].veinsmobility posy ETV
vector 67 RSUExampleScenario.node[12].veinsmobility acceleration ETV
vector 68 RSUExampleScenario.node[12].veinsmobility co2emission ETV
vector 69 RSUExampleScenario.node[13].veinsmobility speed ETV
vector 70 RSUExampleScenario.node[13].veinsmobility acceleration ETV
vector 71 RSUExampleScenario.node[13].veinsmobility co2emission ETV
vector 72 RSUExampleScenario.node[14].veinsmobility speed ETV
vector 73 RSUExampleScenario.node[15].veinsmobility posx ETV
vector 74 RSUExampleScenario.node[15].veinsmobility posy ETV
vector 75 RSUExampleScenario.node[14].veinsmobility acceleration ETV
vector 76 RSUExampleScenario.node[14].veinsmobility co2emission ETV
vector 77 RSUExampleScenario.node[16].veinsmobility posx ETV
vector 78 RSUExampleScenario.node[16].veinsmobility posy ETV
vector 79 RSUExampleScenario.node[15].veinsmobility speed ETV
vector 80 RSUExampleScenario.node[17].veinsmobility posx ETV
vector 81 RSUExampleScenario.node[17].veinsmobility posy ETV
vector 82 RSUExampleScenario.node[15].veinsmobility acceleration ETV
vector 83 RSUExampleScenario.node[15].veinsmobility co2emission ETV
vector 84 RSUExampleScenario.node[16].veinsmobility speed ETV
vector 85 RSUExampleScenario.node[18].veinsmobility posx ETV
vector 86 RSUExampleScenario.node[18].veinsmobility posy ETV
vector 87 RSUExampleScenario.node[16].veinsmobility acceleration ETV
vector 88 RSUExampleScenario.node[16].veinsmobility co2emission ETV
vector 89 RSUExampleScenario.node[17].veinsmobility speed ETV
vector 90 RSUExampleScenario.node[19].veinsmobility posx ETV
vector 91 RSUExampleScenario.node[19].veinsmobility posy ETV
vector 92 RSUExampleScenario.node[17].veinsmobility acceleration ETV
vector 93 RSUExampleScenario.node[17].veinsmobility co2emission ETV
vector 94 RSUExampleScenario.node[18].veinsmobility speed ETV
vector 95 RSUExampleScenario.node[20].veinsmobility posx ETV
vector 96 RSUExampleScenario.node[20].veinsmobility posy ETV
vector 97 RSUExampleScenario.node[18].veinsmobility acceleration ETV
vector 98 RSUExampleScenario.node[18].veinsmobility co2emission ETV
vector 99 RSUExampleScenario.node[19].veinsmobility speed ETV
vector 100 RSUExampleScenario.node[21].veinsmobility posx ETV
vector 101 RSUExampleScenario.node[21].veinsmobility posy ETV
vector 102 RSUExampleScenario.node[19].veinsmobility acceleration ETV
vector 103 RSUExampleScenario.node[19].veinsmobility co2emission ETV
vector 104 RSUExampleScenario.node[20].veinsmobility speed ETV
vector 105 RSUExampleScenario.node[22].veinsmobility posx ETV
vector 106 RSUExampleScenario.node[22].veinsmobility posy ETV
vector 107 RSUExampleScenario.node[20].veinsmobility acceleration ETV
vector 108 RSUExampleScenario.node[20].veinsmobility co2emission ETV
vector 109 RSUExampleScenario.node[21].veinsmobility speed ETV
vector 110 RSUExampleScenario.node[23].veinsmobility posx ETV
vector 111 RSUExampleScenario.node[23].veinsmobility posy ETV
vector 112 RSUExampleScenario.node[21].veinsmobility acceleration ETV
vector 113 RSUExampleScenario.node[21].veinsmobility co2emission ETV
vector 114 RSUExampleScenario.node[22].veinsmobility speed ETV
vector 115 RSUExampleScenario.node[24].veinsmobility posx ETV
vector 116 RSUExampleScenario.node[24].veinsmobility posy ETV
vector 117 RSUExampleScenario.node[22].veinsmobility acceleration ETV
vector 118 RSUExampleScenario.node[22].veinsmobility co2emission ETV
vector 119 RSUExampleScenario.node[23].veinsmobility speed ETV
vector 120 RSUExampleScenario.node[25].veinsmobility posx ETV
vector 121 RSUExampleScenario.node[25].veinsmobility posy ETV
vector 122 RSUExampleScenario.node[23].veinsmobility acceleration ETV
vector 123 RSUExampleScenario.node[23].veinsmobility co2emission ETV
vector 124 RSUExampleScenario.node[24].veinsmobility speed ETV
vector 125 RSUExampleScenario.node[26].veinsmobility posx ETV
vector 126 RSUExampleScenario.node[26].veinsmobility posy ETV
vector 127 RSUExampleScenario.node[24].veinsmobility acceleration ETV
vector 128 RSUExampleScenario.node[24].veinsmobility co2emission ETV
vector 129 RSUExampleScenario.node[25].veinsmobility speed ETV
vector 130 RSUExampleScenario.node[27].veinsmobility posx ETV
vector 131 RSUExampleScenario.node[27].veinsmobility posy ETV
vector 132 RSUExampleScenario.node[25].veinsmobility acceleration ETV
vector 133 RSUExampleScenario.node[25].veinsmobility co2emission ETV
vector 134 RSUExampleScenario.node[26].veinsmobility speed ETV
vector 135 RSUExampleScenario.node[28].veinsmobility posx ETV
vector 136 RSUExampleScenario.node[28].veinsmobility posy ETV
vector 137 RSUExampleScenario.node[26].veinsmobility acceleration ETV
vector 138 RSUExampleScenario.node[26].veinsmobility co2emission ETV
vector 139 RSUExampleScenario.node[27].veinsmobility speed ETV
vector 140 RSUExampleScenario.node[29].veinsmobility posx ETV
vector 141 RSUExampleScenario.node[29].veinsmobility posy ETV
vector 142 RSUExampleScenario.node[27].veinsmobility acceleration ETV
vector 143 RSUExampleScenario.node[27].veinsmobility co2emission ETV
vector 144 RSUExampleScenario.node[28].veinsmobility speed ETV
vector 145 RSUExampleScenario.node[30].veinsmobility posx ETV
vector 146 RSUExampleScenario.node[30].veinsmobility posy ETV
vector 147 RSUExampleScenario.node[28].veinsmobility acceleration ETV
vector 148 RSUExampleScenario.node[28].veinsmobility co2emission ETV
vector 149 RSUExampleScenario.node[29].veinsmobility speed ETV
vector 150 RSUExampleScenario.node[31].veinsmobility posx ETV
vector 151 RSUExampleScenario.node[31].veinsmobility posy ETV
vector 152 RSUExampleScenario.node[29].veinsmobility acceleration ETV
vector 153 RSUExampleScenario.node[29].veinsmobility co2emission ETV
vector 154 RSUExampleScenario.node[30].veinsmobility speed ETV
vector 155 RSUExampleScenario.node[32].veinsmobility posx ETV
vector 156 RSUExampleScenario.node[32].veinsmobility posy ETV
vector 157 RSUExampleScenario.node[30].veinsmobility acceleration ETV
vector 158 RSUExampleScenario.node[30].veinsmobility co2emission ETV
vector 159 RSUExampleScenario.node[31].veinsmobility speed ETV
vector 160 RSUExampleScenario.node[33].veinsmobility posx ETV
vector 161 RSUExampleScenario.node[33].veinsmobility posy ETV
vector 162 RSUExampleScenario.node[31].veinsmobility acceleration ETV
vector 163 RSUExampleScenario.node[31].veinsmobility co2emission ETV
vector 164 RSUExampleScenario.node[32].veinsmobility speed ETV
vector 165 RSUExampleScenario.node[34].veinsmobility posx ETV
vector 166 RSUExampleScenario.node[34].veinsmobility posy ETV
vector 167 RSUExampleScenario.node[32].veinsmobility acceleration ETV
vector 168 RSUExampleScenario.node[32].veinsmobility co2emission ETV
vector 169 RSUExampleScenario.node[33].veinsmobility speed ETV
vector 170 RSUExampleScenario.node[35].veinsmobility posx ETV
vector 171 RSUExampleScenario.node[35].veinsmobility posy ETV
vector 172 RSUExampleScenario.node[33].veinsmobility acceleration ETV
vector 173 RSUExampleScenario.node[33].veinsmobility co2emission ETV
vector 174 RSUExampleScenario.node[34].veinsmobility speed ETV
vector 175 RSUExampleScenario.node[36].veinsmobility posx ETV
vector 176 RSUExampleScenario.node[36].veinsmobility posy ETV
vector 177 RSUExampleScenario.node[34].veinsmobility acceleration ETV
vector 178 RSUExampleScenario.node[34].veinsmobility co2emission ETV
vector 179 RSUExampleScenario.node[35].veinsmobility speed ETV
vector 180 RSUExampleScenario.node[37].veinsmobility posx ETV
vector 181 RSUExampleScenario.node[37].veinsmobility posy ETV
vector 182 RSUExampleScenario.node[35].veinsmobility acceleration ETV
vector 183 RSUExampleScenario.node[35].veinsmobility co2emission ETV
vector 184 RSUExampleScenario.node[36].veinsmobility speed ETV
vector 185 RSUExampleScenario.node[38].veinsmobility posx ETV
vector 186 RSUExampleScenario.node[38].veinsmobility posy ETV
vector 187 RSUExampleScenario.node[36].veinsmobility acceleration ETV
vector 188 RSUExampleScenario.node[36].veinsmobility co2emission ETV
vector 189 RSUExampleScenario.node[37].veinsmobility speed ETV
vector 190 RSUExampleScenario.node[39].veinsmobility posx ETV
vector 191 RSUExampleScenario.node[39].veinsmobility posy ETV
vector 192 RSUExampleScenario.node[37].veinsmobility acceleration ETV
vector 193 RSUExampleScenario.node[37].veinsmobility co2emission ETV
vector 194 RSUExampleScenario.node[38].veinsmobility speed ETV
vector 195 RSUExampleScenario.node[40].veinsmobility posx ETV
vector 196 RSUExampleScenario.node[40].veinsmobility posy ETV
vector 197 RSUExampleScenario.node[38].veinsmobility acceleration ETV
vector 198 RSUExampleScenario.node[38].veinsmobility co2emission ETV
vector 199 RSUExampleScenario.node[39].veinsmobility speed ETV
vector 200 RSUExampleScenario.node[41].veinsmobility posx ETV
vector 201 RSUExampleScenario.node[41].veinsmobility posy ETV
vector 202 RSUExampleScenario.node[39].veinsmobility acceleration ETV
vector 203 RSUExampleScenario.node[39].veinsmobility co2emission ETV
vector 204 RSUExampleScenario.node[40].veinsmobility speed ETV
0	2	1	3202.2230669145
0	22	2	3202.3333519207
0	42	3	3202.5539219331
0	62	4	3202.8847769517
0	82	5	3203.3259169765
0	102	6	3203.8773420074
0	126	7	3204.5390520446
0	148	8	3205.3055328377
0	168	9	3205.9409812577
0	192	10	3208.501536627
0	212	11	3214.5645546624
0	234	12	3221.528977492
0	256	13	3229.288255627
0	276	14	3237.8423890675
0	303	15	3247.1913778135
0	324	16	3254.2646098132
0	346	17	3260.9679096627
0	369	18	3264.7334951272
0	390	19	3270.2664632839
0	412	20	3276.591630575
0	436	21	3283.7136693358
0	456	22	3291.6325795664
0	480	23	3300.3483612667
0	502	24	3309.8610144368
0	522	25	3320.1705390766
0	547	26	3324.6421022529
0	567	27	3323.369904189
0	589	28	3322.4307931287
0	610	29	3322.082497793
0	630	30	3327.2902133621
0	653	31	3335.2131705808
0	674	32	3343.9980544192
0	696	33	3350.4179269868
0	719	34	3353.9509432447
0	739	35	3353.6073497128
0	761	36	3353.1396435166
0	783	37	3352.6719373205
0	803	38	3352.2042311243
0	828	39	3352.0929919142
0	849	40	3354.9590234357
0	871	41	3361.6547261504
0	899	42	3369.5521896745
0	920	43	3378.2433681257
1	2	1	1740.0189776952
1	22	2	1739.2266604709
1	42	3	1737.6420260223
1	62	4	1735.2650743494
1	82	5	1732.0958054523
1	102	6	1728.1342193309
1	126	7	1723.3803159851
1	148	8	1717.8737112763
1	168	9	1713.3084784696
1	192	10	1708.7979025482
1	212	11	1708.3583342815
1	234	12	1709.1610546624
1	256	13	1710.0553901806
1	276	14	1711.041340836
1	303	15	1712.1189066287
1	324	16	1712.8054641119
1	346	17	1711.2091945619
1	369	18	1708.1236936125
1	390	19	1708.4661787333
1	412	20	1709.0257871323
1	436	21	1709.6558973769
1	456	22	1710.3565094671
1	480	23	1711.1276234028
1	502	24	1711.9692391841
1	522	25	1712.881356811
1	547	26	1720.3901770722
1	567	27	1732.2720269139
1	589	28	1741.0429698358
1	610	29	1749.08666507
1	630	30	1754.6304418923
1	653	31	1756.0713474747
1	674	32	1757.2898525253
1	696	33	1758.3616090491
1	719	34	1763.1394312109
1	739	35	1768.6805116947
1	761	36	1774.2199782519
1	783	37	1779.7594448092
1	803	38	1785.2989113664
1	828	39	1790.8448566616
1	849	40	1796.2038148035
1	871	41	1798.3752806771
1	899	42	1799.3609746539
1	920	43	1800.445733352
2	2	1	2186.9357564125
2	22	2	2187.2958750654
2	42	3	2188.0161123713
2	62	4	2189.0964683302
2	82	5	2190.5369429419
2	102	6	2192.3375362066
2	126	7	2194.4982481243
2	148	8	2199.8733808894
2	168	9	2202.7530040782
2	192	10	2205.9925801656
2	212	11	2209.5921091517
2	234	12	2213.5515910363
2	256	13	2217.8710258195
2	276	14	2222.5504135013
2	303	15	2227.5492593806
2	324	16	2232.54810526
2	346	17	2237.5555721391
2	369	18	2242.6862268547
2	390	19	2247.8168815703
2	412	20	2252.8459391629
2	436	21	2255.9694123295
2	456	22	2261.502685117
2	480	23	2268.1963511806
2	502	24	2275.6056975266
2	522	25	2283.7227070473
2	547	26	2287.99
2	567	27	2291.2421945433
2	589	28	2294.8015002809
2	610	29	2298.9419171594
2	630	30	2303.6634451787
2	653	31	2308.9660843389
2	674	32	2314.8498346399
2	696	33	2321.3146960817
2	719	34	2329.142283005
2	739	35	2337.6408368008
2	761	36	2346.7855742638
2	783	37	2356.5622226012
2	803	38	2366.9852609113
2	828	39	2378.0546891941
2	849	40	2389.2776350955
2	871	41	2398.1127731548
2	899	42	2404.4362034809
2	920	43	2410.703277343
3	2	1	1230.6450502684
3	22	2	1231.3595679576
3	42	3	1232.7886033359
3	62	4	1234.9321564034
3	82	5	1237.79022716
3	102	6	1241.3628156058
3	126	7	1245.6499217408
3	148	8	1249.2051386235
3	168	9	1254.9197890668
3	192	10	1261.3487708155
3	212	11	1268.4920838696
3	234	12	1276.3497282291
3	256	13	1284.921703894
3	276	14	1294.2080108643
3	303	15	1304.1282868682
3	324	16	1314.0485628721
3	346	17	1323.9644224344
3	369	18	1333.8171742484
3	390	19	1343.6699260623
3	412	20	1353.32757388
3	436	21	1358.8928968399
3	456	22	1360.4408067128
3	480	23	1357.8139319495
3	502	24	1354.825697918
3	522	25	1351.4711516784
3	547	26	1350.4
3	567	27	1352.6484163204
3	589	28	1356.0165516474
3	610	29	1359.9345866196
3	630	30	1364.4025212371
3	653	31	1369.4203554998
3	674	32	1374.9880894077
3	696	33	1381.1057229609
3	719	34	1386.8315996665
3	739	35	1392.999121564
3	761	36	1399.6383713875
3	783	37	1406.768967275
3	803	38	1414.3710075188
3	828	39	1422.4444921187
3	849	40	1430.6299447533
3	871	41	1437.365634124
3	899	42	1442.7889622733
3	920	43	1448.2759152038
4	22	2	11107.80577748
4	42	3	11108.1580563
4	62	4	11108.862613941
4	82	5	11109.919450402
4	102	6	11111.328565684
4	126	7	11113.086777778
4	148	8	11115.193444444
4	168	9	11117.651222222
4	192	10	11120.476441033
4	212	11	11123.666950454
4	234	12	11127.232637634
4	256	13	11131.183116954
4	276	14	11135.492730759
4	303	15	11140.161479047
4	324	16	11145.184827586
4	346	17	11150.556335878
4	369	18	11156.095677966
4	390	19	11161.189077734
4	412	20	11164.329249395
4	436	21	11164.538120471
4	456	22	11158.095066589
4	480	23	11149.857830032
4	502	24	11140.850758282
4	522	25	11131.07385134
4	547	26	11120.527109206
4	567	27	11109.210531879
4	589	28	11097.124119361
4	610	29	11084.26787165
4	630	30	11070.901608124
4	653	31	11057.535344598
4	674	32	11044.169081072
4	696	33	11030.825207469
4	719	34	11017.495284968
4	739	35	11004.166757625
4	761	36	10990.838230282
4	783	37	10977.509702939
4	803	38	10964.426107677
4	828	39	10955.661717347
4	849	40	10951.216128193
4	871	41	10946.789049674
4	899	42	10941.276529146
4	920	43	10937.884988997
5	22	2	2267.1429892761
5	42	3	2266.4250268097
5	62	4	2264.9891018767
5	82	5	2262.8352144772
5	102	6	2259.9633646113
5	126	7	2256.3710277778
5	148	8	2252.0576944444
5	168	9	2247.0254722222
5	192	10	2241.2807397069
5	212	11	2234.8293789253
5	234	12	2227.6703697617
5	256	13	2219.807975897
5	276	14	2211.2308189537
5	303	15	2201.9388989318
5	324	16	2191.9298206897
5	346	17	2181.2015267176
5	369	18	2169.6624293785
5	390	19	2158.5108695652
5	412	20	2151.4169733656
5	436	21	2143.9873896958
5	456	22	2140.0167929083
5	480	23	2137.6861986016
5	502	24	2135.137791743
5	522	25	2132.3715723323
5	547	26	2129.3875403696
5	567	27	2126.1856958548
5	589	28	2122.7660387881
5	610	29	2119.1285691693
5	630	30	2115.3467987348
5	653	31	2111.5650283003
5	674	32	2107.7832578658
5	696	33	2103.9445089903
5	719	34	2100.0396835507
5	739	35	2096.1279079122
5	761	36	2092.2161322738
5	783	37	2088.3043566353
5	803	38	2084.4644658587
5	828	39	2081.8881250091
5	849	40	2080.576706287
5	871	41	2082.9117289282
5	899	42	2087.364566913
5	920	43	2092.6851300023
6	22	2	0.8
6	42	3	1.6
6	62	4	2.4
6	82	5	3.2
6	102	6	4
6	126	7	4.8
6	148	8	5.56
6	168	9	4.6095
6	192	10	5.4095
6	212	11	6.2095
6	234	12	7.0095
6	256	13	7.8095
6	276	14	8.6095
6	303	15	9.4095
6	324	16	7.11
6	346	17	7.11
6	369	18	5.55
6	390	19	5.55
6	412	20	6.35
6	436	21	7.15
6	456	22	7.95
6	480	23	8.75
6	502	24	9.55
6	522	25	10.35
6	547	26	11.15
6	567	27	11.95
6	589	28	8.82125
6	610	29	8.07
6	630	30	8.07
6	653	31	8.07
6	674	32	8.87
6	696	33	6.52
6	719	34	6.52
6	739	35	5.56
6	761	36	5.56
6	783	37	5.56
6	803	38	5.56
6	828	39	5.56
6	849	40	6.36
6	871	41	7.16
6	899	42	7.96
6	920	43	8.76
7	22	2	0.8
7	42	3	1.6
7	62	4	2.4
7	82	5	3.2
7	102	6	4
7	126	7	4.8
7	148	8	5.6
7	168	9	6.4
7	192	10	7.2
7	212	11	8
7	234	12	8.8
7	256	13	9.6
7	276	14	10.4
7	303	15	11.11
7	324	16	11.11
7	346	17	11.11
7	369	18	11.11
7	390	19	11.11
7	412	20	10.89
7	436	21	6.39
7	456	22	6.39
7	480	23	7.19
7	502	24	7.99
7	522	25	8.79
7	547	26	4.42
7	567	27	4.1
7	589	28	4.9
7	610	29	5.7
7	630	30	6.5
7	653	31	7.3
7	674	32	8.1
7	696	33	8.9
7	719	34	9.7
7	739	35	10.5
7	761	36	11.3
7	783	37	12.1
7	803	38	12.9
7	828	39	13.7
7	849	40	13.89
7	871	41	11.11
7	899	42	8.33
7	920	43	8.33
8	42	3	9366.6039467849
8	62	4	9365.8861345159
8	82	5	9364.4505099778
8	102	6	9362.2970731707
8	126	7	9359.4258240946
8	148	8	9355.8367627494
8	168	9	9351.5298891353
8	192	10	9346.505203252
8	212	11	9340.7627050998
8	234	12	9334.3023574144
8	256	13	9327.1237611182
8	276	14	9319.2427558706
8	303	15	9310.6579087284
8	324	16	9301.3576576577
8	346	17	9291.3420026584
8	369	18	9280.6109437306
8	390	19	9270.5944808743
8	412	20	9258.4326140895
8	436	21	9245.5553433762
8	456	22	9231.9626687343
8	480	23	9217.6545901639
8	502	24	9202.7473608034
8	522	25	9187.8933511116
8	547	26	9173.0240793481
8	567	27	9158.1548075846
8	589	28	9142.9838988329
8	610	29	9127.7196174695
8	630	30	9112.4319022922
8	653	31	9096.510885034
8	674	32	9080.424266869
8	696	33	9064.1242171518
8	719	34	9047.850965775
8	739	35	9031.5777143981
8	761	36	9015.6037746857
8	783	37	9001.7605652635
8	803	38	8985.6289912189
8	828	39	8967.5302548512
8	849	40	8948.1689134653
8	871	41	8928.2336622492
8	899	42	8907.6123948799
8	920	43	8886.4619693381
9	42	3	1697.7503325942
9	62	4	1698.1033259424
9	82	5	1698.8093126386
9	102	6	1699.8682926829
9	126	7	1701.2802660754
9	148	8	1703.045232816
9	168	9	1705.1631929047
9	192	10	1707.6341463415
9	212	11	1710.4580931264
9	234	12	1713.6349429658
9	256	13	1717.1678526048
9	276	14	1721.1042202038
9	303	15	1725.4008972087
9	324	16	1730.0556306306
9	346	17	1735.0684204696
9	369	18	1740.4392667257
9	390	19	1749.0281693989
9	412	20	1755.1151284891
9	436	21	1761.5601439965
9	456	22	1768.3632159208
9	480	23	1775.5243442623
9	502	24	1782.985344853
9	522	25	1790.5387101593
9	547	26	1798.1900418405
9	567	27	1805.8413735216
9	589	28	1812.8650135625
9	610	29	1819.6943498209
9	630	30	1826.4625011148
9	653	31	1831.577120234
9	674	32	1836.0796882424
9	696	33	1839.6852321007
9	719	34	1843.2953166798
9	739	35	1846.9054012589
9	761	36	1851.4170748489
9	783	37	1862.0464602923
9	803	38	1870.4223780545
9	828	39	1876.4114272157
9	849	40	1880.8224021601
9	871	41	1886.279565993
9	899	42	1892.2423700781
9	920	43	1899.0532411287
10	42	3	0.8
10	62	4	0.8
10	82	5	0.8
10	102	6	0.8
10	126	7	0.8
10	148	8	0.76
10	168	9	-0.9505
10	192	10	0.8
10	212	11	0.8
10	234	12	0.8
10	256	13	0.8
10	276	14	0.8
10	303	15	0.8
10	324	16	-2.2995
10	346	17	0
10	369	18	-1.56
10	390	19	0
10	412	20	0.8
10	436	21	0.8
10	456	22	0.8
10	480	23	0.8
10	502	24	0.8
10	522	25	0.8
10	547	26	0.8
10	567	27	0.8
10	589	28	-3.12875
10	610	29	-0.75125
10	630	30	0
10	653	31	0
10	674	32	0.8
10	696	33	-2.35
10	719	34	0
10	739	35	-0.96
10	761	36	0
10	783	37	0
10	803	38	0
10	828	39	0
10	849	40	0.8
10	871	41	0.8
10	899	42	0.8
10	920	43	0.8
11	42	3	1.4960423838925
11	62	4	1.6897730456371
11	82	5	1.8843550711398
11	102	6	2.08007224832
11	126	7	2.277208365097
11	148	8	2.4124620464209
11	168	9	0.973
11	192	10	2.4285291354941
11	212	11	2.6288557136218
11	234	12	2.8313850181062
11	256	13	3.0364008368665
11	276	14	3.2441869578221
11	303	15	3.4550271688923
11	324	16	0.973
11	346	17	1.4861897187593
11	369	18	0.973
11	390	19	1.3935245275042
11	412	20	2.6642574159189
11	436	21	2.8672028709435
11	456	22	3.0726846804974
11	480	23	3.2809866325
11	502	24	3.4923925148706
11	522	25	3.7071861155285
11	547	26	3.9256512223931
11	567	27	4.1480716233838
11	589	28	0.973
11	610	29	0.973
11	630	30	1.5478472541494
11	653	31	1.5478472541494
11	674	32	3.3124927042273
11	696	33	0.973
11	719	34	1.4501292516751
11	739	35	0.973
11	761	36	1.3940924464209
11	783	37	1.3940924464209
11	803	38	1.3940924464209
11	828	39	1.3940924464209
11	849	40	2.6667797404147
11	871	41	2.8697551483674
11	899	42	3.0752704581983
11	920	43	3.2836094578269
12	42	3	0.8
12	62	4	0.8
12	82	5	0.8
12	102	6	0.8
12	126	7	0.8
12	148	8	0.8
12	168	9	0.8
12	192	10	0.8
12	212	11	0.8
12	234	12	0.8
12	256	13	0.8
12	276	14	0.8
12	303	15	0.71
12	324	16	0
12	346	17	0
12	369	18	0
12	390	19	0
12	412	20	-0.22
12	436	21	-4.5
12	456	22	-8.8817841970013e-016
12	480	23	0.8
12	502	24	0.8
12	522	25	0.8
12	547	26	-4.37
12	567	27	-0.32000000000004
12	589	28	0.8
12	610	29	0.8
12	630	30	0.8
12	653	31	0.8
12	674	32	0.8
12	696	33	0.8
12	719	34	0.8
12	739	35	0.8
12	761	36	0.8
12	783	37	0.8
12	803	38	0.8
12	828	39	0.8
12	849	40	0.19
12	871	41	-2.78
12	899	42	-2.78
12	920	43	0
13	42	3	1.4960423838925
13	62	4	1.6897730456371
13	82	5	1.8843550711398
13	102	6	2.08007224832
13	126	7	2.277208365097
13	148	8	2.4760472093901
13	168	9	2.6768725691187
13	192	10	2.8799682322022
13	212	11	3.08561798656
13	234	12	3.2941056201114
13	256	13	3.5057149207757
13	276	14	3.7207296764723
13	303	15	3.6736604878015
13	324	16	1.7726283878015
13	346	17	1.7726283878015
13	369	18	1.7726283878015
13	390	19	1.7726283878015
13	412	20	0.973
13	436	21	0.973
13	456	22	1.442356831226
13	480	23	2.8774143640141
13	502	24	3.0830304407273
13	522	25	3.2914808492852
13	547	26	0.973
13	567	27	0.973
13	589	28	2.3019642828531
13	610	29	2.5010359219238
13	630	30	2.70212954992
13	653	31	2.905528954761
13	674	32	3.1115179243661
13	696	33	3.3203802466547
13	719	34	3.5323997095462
13	739	35	3.74786010096
13	761	36	3.9670452088154
13	783	37	4.1902388210317
13	803	38	4.4177247255283
13	828	39	4.6497867102246
13	849	40	2.6636361047521
13	871	41	0.973
13	899	42	0.973
13	920	43	1.5652350736574
14	42	3	0.8
14	62	4	1.6
14	82	5	2.4
14	102	6	3.2
14	126	7	4
14	148	8	4.8
14	168	9	5.6
14	192	10	6.4
14	212	11	7.2
14	234	12	8
14	256	13	8.8
14	276	14	9.6
14	303	15	10.4
14	324	16	11.2
14	346	17	12
14	369	18	12.8
14	390	19	12.26
14	412	20	7.76
14	436	21	7.76
14	456	22	7.76
14	480	23	8.56
14	502	24	9.36
14	522	25	10.16
14	547	26	10.96
14	567	27	11.76
14	589	28	12.56
14	610	29	13.36
14	630	30	13.89
14	653	31	13.89
14	674	32	13.89
14	696	33	13.89
14	719	34	13.89
14	739	35	13.89
14	761	36	13.89
14	783	37	13.89
14	803	38	13.63475
14	828	39	9.13475
14	849	40	4.63475
14	871	41	5.43475
14	899	42	6.23475
14	920	43	6.44
15	62	4	2943.35
15	82	5	2944.0705642589
15	102	6	2945.5116927766
15	126	7	2947.6857519531
15	148	8	2950.6967950162
15	168	9	2954.6441988314
15	192	10	2959.44
15	212	11	2965.04
15	234	12	2971.4543230404
15	256	13	2978.6677777778
15	276	14	2986.6614285714
15	303	15	2995.4544444444
15	324	16	3005.0468253968
15	346	17	3013.64
15	369	18	3019.5441362777
15	390	19	3020.7541849513
15	412	20	3024.8870908673
15	436	21	3031.7896564807
15	456	22	3039.5091239567
15	480	23	3048.0285362489
15	502	24	3057.3478933572
15	522	25	3067.4671952818
15	547	26	3078.3864420225
15	567	27	3090.1056335794
15	589	28	3102.6247699524
15	610	29	3115.9438511416
15	630	30	3130.062877147
15	653	31	3144.9818479685
15	674	32	3160.7007636063
15	696	33	3177.22
15	719	34	3194.5378288943
15	739	35	3212.6529539952
15	761	36	3231.57
15	783	37	3251.29
15	803	38	3271.81
15	828	39	3293.13
15	849	40	3315.25
15	871	41	3337.47
15	899	42	3359.6733677522
15	920	43	3381.8519029374
16	62	4	1971.01
16	82	5	1971.3581921251
16	102	6	1972.0545763753
16	126	7	1973.0729130595
16	148	8	1974.1289167494
16	168	9	1974.6859146738
16	192	10	1974.8389201054
16	212	11	1974.9028358209
16	234	12	1974.9777434679
16	256	13	1975.127037037
16	276	14	1975.4042857143
16	303	15	1975.7092592593
16	324	16	1976.041957672
16	346	17	1976.34
16	369	18	1974.7753214961
16	390	19	1969.4077877002
16	412	20	1965.1653863692
16	436	21	1964.9508788025
16	456	22	1965.014249155
16	480	23	1965.0841863834
16	502	24	1965.1606904877
16	522	25	1965.2437614679
16	547	26	1965.333399324
16	567	27	1965.429604056
16	589	28	1965.5323756639
16	610	29	1965.6417141478
16	630	30	1965.7576195075
16	653	31	1965.8800917431
16	674	32	1966.0091308547
16	696	33	1966.1963945578
16	719	34	1966.5836238902
16	739	35	1967.0857384988
16	761	36	1967.5269873922
16	783	37	1967.7326086185
16	803	38	1967.8672495123
16	828	39	1968.0071395638
16	849	40	1968.1208537693
16	871	41	1968.3347746479
16	899	42	1969.2042017474
16	920	43	1970.5518390805
17	62	4	0.8
17	82	5	0.8
17	102	6	0.8
17	126	7	0.8
17	148	8	0.8
17	168	9	0.8
17	192	10	0.8
17	212	11	0.8
17	234	12	0.8
17	256	13	0.8
17	276	14	0.8
17	303	15	0.8
17	324	16	0.8
17	346	17	0.8
17	369	18	0.8
17	390	19	-0.54
17	412	20	-4.5
17	436	21	0
17	456	22	0
17	480	23	0.8
17	502	24	0.8
17	522	25	0.8
17	547	26	0.8
17	567	27	0.8
17	589	28	0.8
17	610	29	0.8
17	630	30	0.53
17	653	31	0
17	674	32	0
17	696	33	0
17	719	34	0
17	739	35	0
17	761	36	0
17	783	37	0
17	803	38	-0.25525000000001
17	828	39	-4.5
17	849	40	-4.5
17	871	41	0.8
17	899	42	0.8
17	920	43	0.20525000000001
18	62	4	1.4960423838925
18	82	5	1.6897730456371
18	102	6	1.8843550711398
18	126	7	2.08007224832
18	148	8	2.277208365097
18	168	9	2.4760472093901
18	192	10	2.6768725691187
18	212	11	2.8799682322022
18	234	12	3.08561798656
18	256	13	3.2941056201114
18	276	14	3.5057149207757
18	303	15	3.7207296764723
18	324	16	3.9394336751206
18	346	17	4.16211070464
18	369	18	4.3890445529498
18	390	19	0.973
18	412	20	0.973
18	436	21	1.5275099952877
18	456	22	1.5275099952877
18	480	23	3.2312444673494
18	502	24	3.4418874701483
18	522	25	3.6558507916037
18	547	26	3.873418219635
18	567	27	4.0948735421615
18	589	28	4.3205005471026
18	610	29	4.5505830223777
18	630	30	3.8017827047521
18	653	31	2.0276130047521
18	674	32	2.0276130047521
18	696	33	2.0276130047521
18	719	34	2.0276130047521
18	739	35	2.0276130047521
18	761	36	2.0276130047521
18	783	37	2.0276130047521
18	803	38	1.1631561052362
18	828	39	0.973
18	849	40	0.973
18	871	41	2.4348211243285
18	899	42	2.6352128888323
18	920	43	1.7638952835812
19	62	4	0.8
19	82	5	1.6
19	102	6	2.4
19	126	7	3.2
19	148	8	4
19	168	9	4.8
19	192	10	5.6
19	212	11	6.4
19	234	12	7.2
19	256	13	8
19	276	14	8.8
19	303	15	9.6
19	324	16	10.4
19	346	17	11.2
19	369	18	12
19	390	19	12.8
19	412	20	13.6
19	436	21	14.4
19	456	22	15.2
19	480	23	16
19	502	24	16.67
19	522	25	16.67
19	547	26	16.67
19	567	27	16.67
19	589	28	16.67
19	610	29	16.67
19	630	30	16.67
19	653	31	16.67
19	674	32	16.67
19	696	33	16.67
19	719	34	16.67
19	739	35	16.67
19	761	36	16.67
19	783	37	17.47
19	803	38	18.27
19	828	39	19.07
19	849	40	19.87
19	871	41	20.67
19	899	42	21.47
19	920	43	22.22
20	82	5	2617.4402873563
20	102	6	2618.0050383142
20	126	7	2619.1345402299
20	148	8	2620.8287931034
20	168	9	2623.0145901639
20	192	10	2625.7654324324
20	212	11	2629.1513783784
20	234	12	2633.0313357436
20	256	13	2637.5464885248
20	276	14	2642.6778038289
20	303	15	2648.8289669921
20	324	16	2655.2338656357
20	346	17	2661.6387642793
20	369	18	2667.9646376812
20	390	19	2672.3117898551
20	412	20	2675.5041167896
20	436	21	2672.2972737752
20	456	22	2667.6486474544
20	480	23	2662.4912795389
20	502	24	2656.8986543779
20	522	25	2650.7236313364
20	547	26	2644.0398525346
20	567	27	2636.8473179724
20	589	28	2629.1460276498
20	610	29	2620.9021519778
20	630	30	2612.1027857143
20	653	31	2602.858716968
20	674	32	2593.1904521498
20	696	33	2582.9905520661
20	719	34	2572.2575933884
20	739	35	2564.3723702479
20	761	36	2559.347583878
20	783	37	2557.8032441861
20	803	38	2562.0325942982
20	828	39	2567.5345426022
20	849	40	2574.5228166817
20	871	41	2582.0330621906
20	899	42	2589.6358044138
20	920	43	2597.9209531979
21	82	5	1687.2549425287
21	102	6	1687.8219923372
21	126	7	1688.956091954
21	148	8	1690.6572413793
21	168	9	1692.8529836066
21	192	10	1695.6177207207
21	212	11	1699.020963964
21	234	12	1702.9198133483
21	256	13	1707.4557541257
21	276	14	1712.5020712227
21	303	15	1717.6172762051
21	324	16	1722.943483393
21	346	17	1728.2696905808
21	369	18	1733.5329192547
21	390	19	1737.1535931677
21	412	20	1742.3965330741
21	436	21	1747.9109524496
21	456	22	1753.5532050913
21	480	23	1759.8129409222
21	502	24	1766.6131912442
21	522	25	1774.1082373272
21	547	26	1782.2207949309
21	567	27	1790.9508640553
21	589	28	1800.2984447005
21	610	29	1810.2393414296
21	630	30	1820.7541910499
21	653	31	1831.9264061196
21	674	32	1843.8057510402
21	696	33	1856.2742413223
21	719	34	1869.3364011019
21	739	35	1878.9328271809
21	761	36	1885.0652712418
21	783	37	1889.7620618161
21	803	38	1893.6062105263
21	828	39	1897.0595159431
21	849	40	1899.1853087514
21	871	41	1902.1351729014
21	899	42	1906.8015266612
21	920	43	1911.885397363
22	82	5	0.8
22	102	6	0.8
22	126	7	0.8
22	148	8	0.8
22	168	9	0.8
22	192	10	0.8
22	212	11	0.8
22	234	12	0.8
22	256	13	0.8
22	276	14	0.8
22	303	15	0.8
22	324	16	0.8
22	346	17	0.8
22	369	18	0.8
22	390	19	0.8
22	412	20	0.8
22	436	21	0.8
22	456	22	0.8
22	480	23	0.8
22	502	24	0.67
22	522	25	0
22	547	26	0
22	567	27	0
22	589	28	0
22	610	29	0
22	630	30	0
22	653	31	0
22	674	32	0
22	696	33	0
22	719	34	0
22	739	35	0
22	761	36	0
22	783	37	0.8
22	803	38	0.8
22	828	39	0.8
22	849	40	0.8
22	871	41	0.8
22	899	42	0.8
22	920	43	0.74999999999999
23	82	5	1.4960423838925
23	102	6	1.6897730456371
23	126	7	1.8843550711398
23	148	8	2.08007224832
23	168	9	2.277208365097
23	192	10	2.4760472093901
23	212	11	2.6768725691187
23	234	12	2.8799682322022
23	256	13	3.08561798656
23	276	14	3.2941056201114
23	303	15	3.5057149207757
23	324	16	3.7207296764723
23	346	17	3.9394336751206
23	369	18	4.16211070464
23	390	19	4.3890445529498
23	412	20	4.6205190079693
23	436	21	4.8568178576179
23	456	22	5.098224889815
23	480	23	5.34502389248
23	502	24	5.033802359325
23	522	25	2.342097459325
23	547	26	2.342097459325
23	567	27	2.342097459325
23	589	28	2.342097459325
23	610	29	2.342097459325
23	630	30	2.342097459325
23	653	31	2.342097459325
23	674	32	2.342097459325
23	696	33	2.342097459325
23	719	34	2.342097459325
23	739	35	2.342097459325
23	761	36	2.342097459325
23	783	37	5.8135200295279
23	803	38	6.0771638184197
23	828	39	6.3472886139199
23	849	40	6.6241782039479
23	871	41	6.908116376423
23	899	42	7.1993869192646
23	920	43	7.2116137024117
24	82	5	0.8
24	102	6	1.6
24	126	7	2.4
24	148	8	3.2
24	168	9	4
24	192	10	4.8
24	212	11	5.6
24	234	12	6.4
24	256	13	7.2
24	276	14	8
24	303	15	8.8
24	324	16	9.6
24	346	17	8.6
24	369	18	6.29
24	390	19	5.56
24	412	20	6.36
24	436	21	6.92
24	456	22	7.72
24	480	23	8.52
24	502	24	9.32
24	522	25	10.12
24	547	26	10.92
24	567	27	11.72
24	589	28	12.52
24	610	29	13.32
24	630	30	14.12
24	653	31	14.92
24	674	32	15.72
24	696	33	16.52
24	719	34	17.32
24	739	35	18.12
24	761	36	18.92
24	783	37	19.72
24	803	38	20.52
24	828	39	21.32
24	849	40	22.12
24	871	41	22.22
24	899	42	22.22
24	920	43	22.22
25	102	6	5882.4884470247
25	126	7	5883.2772230285
25	148	8	5884.8547750363
25	168	9	5887.2211030479
25	192	10	5890.3762070634
25	212	11	5894.3200870827
25	234	12	5899.0529893617
25	256	13	5904.5755425532
25	276	14	5910.886004779
25	303	15	5917.9844994026
25	324	16	5925.8717156511
25	346	17	5934.5476535245
25	369	18	5943.5584694544
25	390	19	5948.1327262445
25	412	20	5952.4785930086
25	436	21	5952.1782370282
25	456	22	5950.6176058162
25	480	23	5948.8796217508
25	502	24	5946.9642848322
25	522	25	5944.8705925926
25	547	26	5942.5951111111
25	567	27	5940.1452206851
25	589	28	5938.3846777833
25	610	29	5938.3407188542
25	630	30	5943.9033805732
25	653	31	5950.7135716561
25	674	32	5958.2804506369
25	696	33	5966.6040175159
25	719	34	5975.684272293
25	739	35	5985.5180973118
25	761	36	5995.9344173377
25	783	37	6006.2856371409
25	803	38	6016.636856944
25	828	39	6026.9855667724
25	849	40	6038.0645687638
25	871	41	6049.8823839256
25	899	42	6062.4689552054
25	920	43	6076.1767105062
26	102	6	1988.5386357039
26	126	7	1988.6733236575
26	148	8	1988.9426995646
26	168	9	1989.3467634253
26	192	10	1989.8855152395
26	212	11	1990.5589550073
26	234	12	1991.3667446809
26	256	13	1992.3080212766
26	276	14	1993.3842819594
26	303	15	1994.5954647551
26	324	16	1995.941223417
26	346	17	1997.421557945
26	369	18	1998.959031143
26	390	19	1999.7395150936
26	412	20	2002.5223271483
26	436	21	2008.618467085
26	456	22	2015.4814585201
26	480	23	2023.1243722737
26	502	24	2031.5472083458
26	522	25	2040.75015
26	547	26	2050.733825
26	567	27	2061.5000988142
26	589	28	2069.2402139328
26	610	29	2075.3525572179
26	630	30	2078.3360880287
26	653	31	2080.6714138494
26	674	32	2083.2662203168
26	696	33	2086.120507431
26	719	34	2089.2342751919
26	739	35	2092.7003973118
26	761	36	2096.6523908937
26	783	37	2100.694800676
26	803	38	2104.7372104583
26	828	39	2108.7718835447
26	849	40	2113.0560439896
26	871	41	2117.6134860501
26	899	42	2122.383534067
26	920	43	2126.3157855876
27	102	6	0.8
27	126	7	0.8
27	148	8	0.8
27	168	9	0.8
27	192	10	0.8
27	212	11	0.8
27	234	12	0.8
27	256	13	0.8
27	276	14	0.8
27	303	15	0.8
27	324	16	0.8
27	346	17	-1
27	369	18	-2.31
27	390	19	-0.73
27	412	20	0.8
27	436	21	0.56
27	456	22	0.8
27	480	23	0.8
27	502	24	0.8
27	522	25	0.8
27	547	26	0.8
27	567	27	0.8
27	589	28	0.8
27	610	29	0.8
27	630	30	0.8
27	653	31	0.8
27	674	32	0.8
27	696	33	0.8
27	719	34	0.8
27	739	35	0.8
27	761	36	0.8
27	783	37	0.8
27	803	38	0.8
27	828	39	0.8
27	849	40	0.8
27	871	41	0.099999999999987
27	899	42	0
27	920	43	0
28	102	6	1.4960423838925
28	126	7	1.6897730456371
28	148	8	1.8843550711398
28	168	9	2.08007224832
28	192	10	2.277208365097
28	212	11	2.4760472093901
28	234	12	2.6768725691187
28	256	13	2.8799682322022
28	276	14	3.08561798656
28	303	15	3.2941056201114
28	324	16	3.5057149207757
28	346	17	0.973
28	369	18	0.973
28	390	19	0.973
28	412	20	2.6667797404147
28	436	21	2.4083559486347
28	456	22	3.0133322901706
28	480	23	3.2207943851284
28	502	24	3.4312788214274
28	522	25	3.6450693869869
28	547	26	3.8624498697263
28	567	27	4.0837040575649
28	589	28	4.3091157384222
28	610	29	4.5389687002175
28	630	30	4.7735467308701
28	653	31	5.0131336182995
28	674	32	5.2580131504248
28	696	33	5.5084691151657
28	719	34	5.7647853004413
28	739	35	6.027245494171
28	761	36	6.2961334842742
28	783	37	6.5717330586704
28	803	38	6.8543280052787
28	828	39	7.1442021120186
28	849	40	7.4416391668095
28	871	41	3.7308507024117
28	899	42	3.1953487024118
28	920	43	3.1953487024118
29	102	6	0.8
29	126	7	1.6
29	148	8	2.4
29	168	9	3.2
29	192	10	4
29	212	11	4.8
29	234	12	5.6
29	256	13	6.4
29	276	14	7.2
29	303	15	8
29	324	16	8.33
29	346	17	8.33
29	369	18	8.33
29	390	19	5.6595
29	412	20	6.4595
29	436	21	6.51
29	456	22	7.31
29	480	23	8.11
29	502	24	8.91
29	522	25	9.71
29	547	26	10.51
29	567	27	11.31
29	589	28	12.11
29	610	29	12.91
29	630	30	13.71
29	653	31	14.51
29	674	32	15.31
29	696	33	16.11
29	719	34	16.91
29	739	35	12.423333333333
29	761	36	7.9233333333333
29	783	37	5.72
29	803	38	5.72
29	828	39	6.52
29	849	40	7.32
29	871	41	8.12
29	899	42	8.92
29	920	43	9.72
30	126	7	4636.1
30	148	8	4635.3608459833
30	168	9	4634.2481712307
30	192	10	4635.62
30	212	11	4632.6120221607
30	234	12	4635.652953682
30	256	13	4639.8700041374
30	276	14	4642.2313232057
30	303	15	4643.2665877285
30	324	16	4644.074731307
30	346	17	4644.3246960298
30	369	18	4644.7341253102
30	390	19	4645.4268261231
30	412	20	4647.0839259202
30	436	21	4649.0419902715
30	456	22	4651.4413690793
30	480	23	4655.3883478208
30	502	24	4659.6201740746
30	522	25	4664.1009312845
30	547	26	4668.6205839563
30	567	27	4671.74
30	589	28	4676.2220469185
30	610	29	4682.2687797046
30	630	30	4688.9445964462
30	653	31	4696.3642367801
30	674	32	4704.5277007065
30	696	33	4713.4349882252
30	719	34	4723.0916178522
30	739	35	4733.5543514644
30	761	36	4744.8364091937
30	783	37	4756.8892878674
30	803	38	4769.6966503391
30	828	39	4783.2584966089
30	849	40	4797.5748266767
30	871	41	4812.6442262318
30	899	42	4828.4604569733
30	920	43	4845.0388664688
31	126	7	1610.06
31	148	8	1610.3656651949
31	168	9	1611.3858707113
31	192	10	1613.226
31	212	11	1612.6417451524
31	234	12	1612.7547804187
31	256	13	1610.8522230733
31	276	14	1605.9009284451
31	303	15	1599.5858148562
31	324	16	1592.4484149299
31	346	17	1584.4519292804
31	369	18	1575.6573883375
31	390	19	1566.0827723364
31	412	20	1555.8202626344
31	436	21	1544.7924195979
31	456	22	1533.0496885237
31	480	23	1520.8730037634
31	502	24	1507.947697366
31	522	25	1494.2620788276
31	547	26	1480.4576615172
31	567	27	1470.93
31	589	28	1467.0585744268
31	610	29	1468.9814065511
31	630	30	1471.6283686577
31	653	31	1474.5702569043
31	674	32	1477.8070712909
31	696	33	1481.3388118176
31	719	34	1485.1491980474
31	739	35	1489.0707740586
31	761	36	1493.0972230595
31	783	37	1497.3491974378
31	803	38	1501.8673360965
31	828	39	1506.6516390354
31	849	40	1511.7021062547
31	871	41	1517.0181401804
31	899	42	1522.596967359
31	920	43	1528.4447952522
32	126	7	0.8
32	148	8	0.8
32	168	9	0.8
32	192	10	0.8
32	212	11	0.8
32	234	12	0.8
32	256	13	0.8
32	276	14	0.8
32	303	15	0.8
32	324	16	0.33
32	346	17	0
32	369	18	0
32	390	19	-2.6705
32	412	20	0.8
32	436	21	0.050499999999999
32	456	22	0.8
32	480	23	0.8
32	502	24	0.8
32	522	25	0.8
32	547	26	0.8
32	567	27	0.8
32	589	28	0.8
32	610	29	0.8
32	630	30	0.8
32	653	31	0.8
32	674	32	0.8
32	696	33	0.8
32	719	34	0.8
32	739	35	-4.4866666666667
32	761	36	-4.5
32	783	37	-2.2033333333333
32	803	38	0
32	828	39	0.8
32	849	40	0.8
32	871	41	0.8
32	899	42	0.8
32	920	43	0.8
33	126	7	1.4960423838925
33	148	8	1.6897730456371
33	168	9	1.8843550711398
33	192	10	2.08007224832
33	212	11	2.277208365097
33	234	12	2.4760472093901
33	256	13	2.6768725691187
33	276	14	2.8799682322022
33	303	15	3.08561798656
33	324	16	2.2277199736574
33	346	17	1.5652350736574
33	369	18	1.5652350736574
33	390	19	0.973
33	412	20	2.6918961630771
33	436	21	1.5287591753816
33	456	22	2.9080872432785
33	480	23	3.1141103782886
33	502	24	3.3230104133313
33	522	25	3.5350711363257
33	547	26	3.7505763351915
33	567	27	3.9698097978478
33	589	28	4.193055312214
33	610	29	4.4205966662096
33	630	30	4.6527176477538
33	653	31	4.8897020447661
33	674	32	5.1318336451658
33	696	33	5.3793962368722
33	719	34	5.6326736078047
33	739	35	0.973
33	761	36	0.973
33	783	37	0.973
33	803	38	1.4032214379231
33	828	39	2.7071852516751
33	849	40	2.9106459369699
33	871	41	3.1167032817268
33	899	42	3.3256410738653
33	920	43	3.5377431013046
34	126	7	0.8
34	148	8	1.6
34	168	9	2.4
34	192	10	3.2
34	212	11	4
34	234	12	4.8
34	256	13	5.6
34	276	14	6.4
34	303	15	7.2
34	324	16	8
34	346	17	8.8
34	369	18	9.1396666666667
34	390	19	4.6396666666667
34	412	20	5.4396666666667
34	436	21	6.2396666666667
34	456	22	7.0396666666667
34	480	23	7.8396666666667
34	502	24	8.6396666666667
34	522	25	9.4396666666667
34	547	26	10.239666666667
34	567	27	11.039666666667
34	589	28	7.9361666666667
34	610	29	6.4
34	630	30	6.4
34	653	31	7.2
34	674	32	8
34	696	33	8.8
34	719	34	9.6
34	739	35	10.4
34	761	36	11.11
34	783	37	11.11
34	803	38	11.11
34	828	39	11.11
34	849	40	11.91
34	871	41	12.71
34	899	42	13.51
34	920	43	14.31
35	148	8	3375.08
35	168	9	3375.8634710744
35	192	10	3377.4304132231
35	212	11	3379.7808264463
35	234	12	3382.9147107438
35	256	13	3386.8779556762
35	276	14	3391.4586257028
35	303	15	3394.4931455764
35	324	16	3396.1996662568
35	346	17	3397.9120850167
35	369	18	3399.8147725277
35	390	19	3401.9077287897
35	412	20	3404.1909538029
35	436	21	3406.6644475672
35	456	22	3408.1353439311
35	480	23	3409.2633284556
35	502	24	3406.38
35	522	25	3406.4756694839
35	547	26	3406.9477962264
35	567	27	3407.4554943396
35	589	28	3408.0287018868
35	610	29	3408.6674188679
35	630	30	3409.3417695473
35	653	31	3410.0662591687
35	674	32	3410.8268948655
35	696	33	3411.4174688264
35	719	34	3412.5313331007
35	739	35	3418.2293241873
35	761	36	3425.7170903668
35	783	37	3434.0046179541
35	803	38	3443.091906949
35	828	39	3452.9782477632
35	849	40	3463.6608905712
35	871	41	3475.1455395232
35	899	42	3487.4303994145
35	920	43	3500.5195
36	148	8	2163.31
36	168	9	2163.4719834711
36	192	10	2163.7959504132
36	212	11	2164.2819008264
36	234	12	2164.9298347107
36	256	13	2165.4344840906
36	276	14	2164.3768234436
36	303	15	2159.7810839875
36	324	16	2153.6228842438
36	346	17	2146.6302968558
36	369	18	2138.8607553135
36	390	19	2130.3142596171
36	412	20	2120.9908097664
36	436	21	2110.8904057615
36	456	22	2104.884064553
36	480	23	2098.1898390342
36	502	24	2093.45
36	522	25	2088.1849318291
36	547	26	2082.8069132075
36	567	27	2076.6279698113
36	589	28	2069.6517433962
36	610	29	2061.8782339623
36	630	30	2053.3077091907
36	653	31	2043.9382722086
36	674	32	2033.7673675632
36	696	33	2025.870457824
36	719	34	2019.3383878204
36	739	35	2016.7268780197
36	761	36	2016.9413247838
36	783	37	2017.1786764092
36	803	38	2017.4389328959
36	828	39	2017.7213417068
36	849	40	2018.0229865795
36	871	41	2018.3572333752
36	899	42	2018.717040987
36	920	43	2019.0988473282
37	148	8	0.8
37	168	9	0.8
37	192	10	0.8
37	212	11	0.8
37	234	12	0.8
37	256	13	0.8
37	276	14	0.8
37	303	15	0.8
37	324	16	0.8
37	346	17	0.8
37	369	18	0.33966666666667
37	390	19	-4.5
37	412	20	0.8
37	436	21	0.8
37	456	22	0.8
37	480	23	0.8
37	502	24	0.8
37	522	25	0.8
37	547	26	0.8
37	567	27	0.8
37	589	28	-3.1035
37	610	29	-1.5361666666667
37	630	30	0
37	653	31	0.8
37	674	32	0.8
37	696	33	0.8
37	719	34	0.8
37	739	35	0.8
37	761	36	0.71
37	783	37	0
37	803	38	0
37	828	39	0
37	849	40	0.8
37	871	41	0.8
37	899	42	0.8
37	920	43	0.8
38	148	8	1.4960423838925
38	168	9	1.6897730456371
38	192	10	1.8843550711398
38	212	11	2.08007224832
38	234	12	2.277208365097
38	256	13	2.4760472093901
38	276	14	2.6768725691187
38	303	15	2.8799682322022
38	324	16	3.08561798656
38	346	17	3.2941056201114
38	369	18	2.3695959431731
38	390	19	0.973
38	412	20	2.4360465201873
38	436	21	2.6364510106316
38	456	22	2.839068928602
38	480	23	3.0441840620178
38	502	24	3.2520801987984
38	522	25	3.4630411268631
38	547	26	3.6773506341313
38	567	27	3.8952925085223
38	589	28	0.973
38	610	29	0.973
38	630	30	1.4429525691187
38	653	31	2.8799682322022
38	674	32	3.08561798656
38	696	33	3.2941056201114
38	719	34	3.5057149207757
38	739	35	3.7207296764723
38	761	36	3.6736604878015
38	783	37	1.7726283878015
38	803	38	1.7726283878015
38	828	39	1.7726283878015
38	849	40	4.1368522841228
38	871	41	4.3632930730936
38	899	42	4.5942425426332
38	920	43	4.8299844806611
39	148	8	0.8
39	168	9	1.6
39	192	10	2.4
39	212	11	3.2
39	234	12	4
39	256	13	4.8
39	276	14	5.6
39	303	15	6.4
39	324	16	7.2
39	346	17	8
39	369	18	8.8
39	390	19	9.6
39	412	20	10.4
39	436	21	11.2
39	456	22	12
39	480	23	12.8
39	502	24	13.6
39	522	25	14.4
39	547	26	14.525
39	567	27	10.025
39	589	28	6.38
39	610	29	6.38
39	630	30	7.18
39	653	31	7.98
39	674	32	8.78
39	696	33	9.58
39	719	34	10.38
39	739	35	11.18
39	761	36	11.98
39	783	37	12.78
39	803	38	13.58
39	828	39	14.38
39	849	40	15.18
39	871	41	15.98
39	899	42	16.78
39	920	43	17.58
40	168	9	7002.540502759
40	192	10	7002.3492090742
40	212	11	7001.9666217045
40	234	12	7001.3927406499
40	256	13	7000.6275659105
40	276	14	6999.6710974862
40	303	15	6998.5233353771
40	324	16	6997.1842795831
40	346	17	6995.6539301042
40	369	18	6993.9322869405
40	390	19	6992.2980410791
40	412	20	6993.5425750652
40	436	21	6995.5508369099
40	456	22	6996.6149080319
40	480	23	6997.8702728387
40	502	24	6999.3169313305
40	522	25	7000.9548835071
40	547	26	7002.7841293685
40	567	27	7004.8046689148
40	589	28	7006.3582725322
40	610	29	7008.8671098034
40	630	30	7014.6926057057
40	653	31	7021.0961247728
40	674	32	7027.971187931
40	696	33	7035.4685672414
40	719	34	7043.7728193103
40	739	35	7052.8734338253
40	761	36	7062.805745964
40	783	37	7073.539868617
40	803	38	7085.2728563625
40	828	39	7097.7570723008
40	849	40	7110.9795886648
40	871	41	7124.9310614276
40	899	42	7139.6202035003
40	920	43	7155.0549873027
41	168	9	1733.0719926425
41	192	10	1733.8487758022
41	212	11	1735.4023421214
41	234	12	1737.7326916002
41	256	13	1740.8398242387
41	276	14	1744.7237400368
41	303	15	1749.3844389945
41	324	16	1754.8219211118
41	346	17	1761.0361863887
41	369	18	1768.0272348253
41	390	19	1774.6633904558
41	412	20	1777.49173648
41	436	21	1774.802934907
41	456	22	1770.4820785816
41	480	23	1765.3844390967
41	502	24	1759.5100164521
41	522	25	1752.8588106479
41	547	26	1745.430821684
41	567	27	1737.2260495606
41	589	28	1730.9173565808
41	610	29	1725.4372799096
41	630	30	1725.6932119827
41	653	31	1728.413349295
41	674	32	1732.0077413793
41	696	33	1736.1401551724
41	719	34	1740.4627455172
41	739	35	1744.9883947739
41	761	36	1749.6197250867
41	783	37	1754.4082300532
41	803	38	1758.8847026564
41	828	39	1763.6471362468
41	849	40	1768.7128671766
41	871	41	1774.1131708133
41	899	42	1779.8298214653
41	920	43	1785.8366574296
42	168	9	0.8
42	192	10	0.8
42	212	11	0.8
42	234	12	0.8
42	256	13	0.8
42	276	14	0.8
42	303	15	0.8
42	324	16	0.8
42	346	17	0.8
42	369	18	0.8
42	390	19	0.8
42	412	20	0.8
42	436	21	0.8
42	456	22	0.8
42	480	23	0.8
42	502	24	0.8
42	522	25	0.8
42	547	26	0.12499999999999
42	567	27	-4.5
42	589	28	-3.645
42	610	29	0
42	630	30	0.8
42	653	31	0.8
42	674	32	0.8
42	696	33	0.8
42	719	34	0.8
42	739	35	0.8
42	761	36	0.8
42	783	37	0.8
42	803	38	0.8
42	828	39	0.8
42	849	40	0.8
42	871	41	0.8
42	899	42	0.8
42	920	43	0.8
43	168	9	1.4960423838925
43	192	10	1.6897730456371
43	212	11	1.8843550711398
43	234	12	2.08007224832
43	256	13	2.277208365097
43	276	14	2.4760472093901
43	303	15	2.6768725691187
43	324	16	2.8799682322022
43	346	17	3.08561798656
43	369	18	3.2941056201114
43	390	19	3.5057149207757
43	412	20	3.7207296764723
43	436	21	3.9394336751206
43	456	22	4.16211070464
43	480	23	4.3890445529498
43	502	24	4.6205190079693
43	522	25	4.8568178576179
43	547	26	2.5313394004982
43	567	27	0.973
43	589	28	0.973
43	610	29	1.441761447514
43	630	30	2.8748608943484
43	653	31	3.080443337759
43	674	32	3.2888565656653
43	696	33	3.5003843659865
43	719	34	3.7153105266421
43	739	35	3.9339188355513
43	761	36	4.1564930806336
43	783	37	4.3833170498084
43	803	38	4.6146745309949
43	828	39	4.8508493121125
43	849	40	5.0921251810807
43	871	41	5.3387859258187
43	899	42	5.5911153342459
43	920	43	5.8493971942817
44	168	9	0.8
44	192	10	1.6
44	212	11	2.4
44	234	12	3.2
44	256	13	4
44	276	14	4.8
44	303	15	5.6
44	324	16	6.4
44	346	17	7.2
44	369	18	8
44	390	19	8.8
44	412	20	9.6
44	436	21	10.4
44	456	22	6.1845
44	480	23	6.81
44	502	24	6.2455
44	522	25	5.4
44	547	26	5.4
44	567	27	6.2
44	589	28	7
44	610	29	7.8
44	630	30	8.6
44	653	31	9.4
44	674	32	10.2
44	696	33	7.9195
44	719	34	6.69
44	739	35	6.69
44	761	36	7.49
44	783	37	8.29
44	803	38	9.09
44	828	39	9.89
44	849	40	10.69
44	871	41	11.49
44	899	42	12.29
44	920	43	13.09
45	192	10	12483.263878514
45	212	11	12482.688800633
45	234	12	12481.538644873
45	256	13	12479.813411232
45	276	14	12477.513099711
45	303	15	12474.63771031
45	324	16	12471.187243029
45	346	17	12467.161697867
45	369	18	12462.561074825
45	390	19	12457.395475564
45	412	20	12451.675851758
45	436	21	12445.384265571
45	456	22	12438.520717004
45	480	23	12431.085206056
45	502	24	12423.077732727
45	522	25	12414.498297018
45	547	26	12405.346898928
45	567	27	12395.623538458
45	589	28	12385.692841624
45	610	29	12375.762144791
45	630	30	12368.741544886
45	653	31	12364.938233373
45	674	32	12359.647552803
45	696	33	12354.335100457
45	719	34	12349.044415525
45	739	35	12343.180214612
45	761	36	12336.742497717
45	783	37	12329.796657025
45	803	38	12322.347797119
45	828	39	12314.434002667
45	849	40	12305.963878201
45	871	41	12296.93742372
45	899	42	12287.354639225
45	920	43	12277.695359353
46	192	10	2000.4955950937
46	212	11	2001.0517668731
46	234	12	2002.1641104319
46	256	13	2003.8326257701
46	276	14	2006.0573128877
46	303	15	2008.8381717847
46	324	16	2012.175202461
46	346	17	2016.0684049168
46	369	18	2020.517779152
46	390	19	2025.53371201
46	412	20	2031.1274643435
46	436	21	2037.2805919104
46	456	22	2043.9930947106
46	480	23	2051.2649727442
46	502	24	2059.0962260112
46	522	25	2067.4868545115
46	547	26	2076.4368582452
46	567	27	2085.9462372122
46	589	28	2095.6583897013
46	610	29	2105.3705421904
46	630	30	2112.2366401068
46	653	31	2115.9562523356
46	674	32	2118.4337249088
46	696	33	2114.7887987606
46	719	34	2109.6449435747
46	739	35	2103.9434889106
46	761	36	2097.6844347684
46	783	37	2090.7978980716
46	803	38	2083.2816663407
46	828	39	2075.1038089438
46	849	40	2066.3510582326
46	871	41	2057.023414207
46	899	42	2047.120876867
46	920	43	2037.1392916963
47	192	10	0.8
47	212	11	0.8
47	234	12	0.8
47	256	13	0.8
47	276	14	0.8
47	303	15	0.8
47	324	16	0.8
47	346	17	0.8
47	369	18	0.8
47	390	19	0.8
47	412	20	0.8
47	436	21	0.8
47	456	22	-4.2155
47	480	23	0.6255
47	502	24	-0.5645
47	522	25	-0.8455
47	547	26	0
47	567	27	0.8
47	589	28	0.8
47	610	29	0.8
47	630	30	0.8
47	653	31	0.8
47	674	32	0.8
47	696	33	-2.2805
47	719	34	-1.2295
47	739	35	0
47	761	36	0.8
47	783	37	0.8
47	803	38	0.8
47	828	39	0.8
47	849	40	0.8
47	871	41	0.8
47	899	42	0.8
47	920	43	0.8
48	192	10	1.4960423838925
48	212	11	1.6897730456371
48	234	12	1.8843550711398
48	256	13	2.08007224832
48	276	14	2.277208365097
48	303	15	2.4760472093901
48	324	16	2.6768725691187
48	346	17	2.8799682322022
48	369	18	3.08561798656
48	390	19	3.2941056201114
48	412	20	3.5057149207757
48	436	21	3.7207296764723
48	456	22	0.973
48	480	23	2.4942664675238
48	502	24	0.973
48	522	25	0.973
48	547	26	1.3850423479603
48	567	27	2.6264644737126
48	589	28	2.82896595584
48	610	29	3.0339505822618
48	630	30	3.2417021408973
48	653	31	3.4525044196659
48	674	32	3.666641206487
48	696	33	0.973
48	719	34	0.973
48	739	35	1.4603855280369
48	761	36	2.9542062584001
48	783	37	3.1608519531583
48	803	38	3.3704384002309
48	828	39	3.5832493875372
48	849	40	3.7995687029965
48	871	41	4.0196801345284
48	899	42	4.243867470052
48	920	43	4.4724144974868
49	192	10	0.8
49	212	11	1.6
49	234	12	2.4
49	256	13	3.2
49	276	14	4
49	303	15	4.8
49	324	16	5.6
49	346	17	6.4
49	369	18	7.2
49	390	19	6.8345
49	412	20	3.65
49	436	21	3.65
49	456	22	4.45
49	480	23	5.25
49	502	24	6.05
49	522	25	6.85
49	547	26	7.65
49	567	27	8.45
49	589	28	6.49725
49	610	29	6.16
49	630	30	6.16
49	653	31	6.96
49	674	32	7.76
49	696	33	8.56
49	719	34	9.36
49	739	35	10.16
49	761	36	10.96
49	783	37	11.76
49	803	38	12.56
49	828	39	13.36
49	849	40	14.16
49	871	41	14.96
49	899	42	15.76
49	920	43	16.56
50	212	11	0.8
50	234	12	0.8
50	256	13	0.8
50	276	14	0.8
50	303	15	0.8
50	324	16	0.8
50	346	17	0.8
50	369	18	0.8
50	390	19	-0.3655
50	412	20	-3.1845
50	436	21	0
50	456	22	0.8
50	480	23	0.8
50	502	24	0.8
50	522	25	0.8
50	547	26	0.8
50	567	27	0.8
50	589	28	-1.95275
50	610	29	-0.33725
50	630	30	0
50	653	31	0.8
50	674	32	0.8
50	696	33	0.8
50	719	34	0.8
50	739	35	0.8
50	761	36	0.8
50	783	37	0.8
50	803	38	0.8
50	828	39	0.8
50	849	40	0.8
50	871	41	0.8
50	899	42	0.8
50	920	43	0.8
51	212	11	1.4960423838925
51	234	12	1.6897730456371
51	256	13	1.8843550711398
51	276	14	2.08007224832
51	303	15	2.277208365097
51	324	16	2.4760472093901
51	346	17	2.6768725691187
51	369	18	2.8799682322022
51	390	19	0.973
51	412	20	0.973
51	436	21	1.2905681193451
51	456	22	2.1907685308318
51	480	23	2.38882751262
51	502	24	2.588748852629
51	522	25	2.7908163387781
51	547	26	2.9953137589867
51	567	27	3.2025249011742
51	589	28	0.973
51	610	29	0.973
51	630	30	1.4287514916982
51	653	31	2.8187842660437
51	674	32	3.0236379952877
51	696	33	3.2312444673494
51	719	34	3.4418874701483
51	739	35	3.6558507916037
51	761	36	3.873418219635
51	783	37	4.0948735421615
51	803	38	4.3205005471026
51	828	39	4.5505830223777
51	849	40	4.7854047559061
51	871	41	5.0252495356071
51	899	42	5.2704011494002
51	920	43	5.5211433852047
52	212	11	0.8
52	234	12	1.6
52	256	13	2.4
52	276	14	3.2
52	303	15	4
52	324	16	4.8
52	346	17	5.6
52	369	18	6.4
52	390	19	7.2
52	412	20	8
52	436	21	8.8
52	456	22	9.6
52	480	23	10.4
52	502	24	11.2
52	522	25	12
52	547	26	12.8
52	567	27	13.6
52	589	28	13.89
52	610	29	13.89
52	630	30	9.8196666666667
52	653	31	5.3196666666667
52	674	32	6.1196666666667
52	696	33	6.58
52	719	34	7.38
52	739	35	8.18
52	761	36	8.98
52	783	37	9.78
52	803	38	10.58
52	828	39	11.38
52	849	40	12.18
52	871	41	12.98
52	899	42	13.78
52	920	43	13.89
53	234	12	10459.64844887
53	256	13	10458.871734967
53	276	14	10457.318307162
53	303	15	10454.988165454
53	324	16	10451.881309843
53	346	17	10447.997740329
53	369	18	10443.337456913
53	390	19	10437.893621285
53	412	20	10431.648424326
53	436	21	10424.620370961
53	456	22	10416.779924212
53	480	23	10408.155432788
53	502	24	10402.202083566
53	522	25	10396.753166635
53	547	26	10397.274485527
53	567	27	10399.466407098
53	589	28	10401.878345891
53	610	29	10404.510301906
53	630	30	10407.362275142
53	653	31	10410.434265601
53	674	32	10413.726273281
53	696	33	10416.866228413
53	719	34	10419.948884935
53	739	35	10423.213275076
53	761	36	10427.4676893
53	783	37	10431.987005171
53	803	38	10436.623053527
53	828	39	10441.359675291
53	849	40	10443.582517698
53	871	41	10450.050773229
53	899	42	10458.086002784
53	920	43	10467.598215548
54	234	12	1500.9227499043
54	256	13	1501.1145538108
54	276	14	1501.4981616239
54	303	15	1502.0735733435
54	324	16	1502.8407889697
54	346	17	1503.7998085025
54	369	18	1504.9506319418
54	390	19	1506.2635521769
54	412	20	1507.6612024879
54	436	21	1509.2224650977
54	456	22	1510.7988512166
54	480	23	1512.5328759473
54	502	24	1513.7298456322
54	522	25	1517.2435786973
54	547	26	1524.310100299
54	567	27	1531.9720622283
54	589	28	1540.4031044014
54	610	29	1549.6032268184
54	630	30	1559.5724294792
54	653	31	1570.3107123838
54	674	32	1581.8180755323
54	696	33	1594.1910758458
54	719	34	1607.4051234513
54	739	35	1621.398186391
54	761	36	1635.9569201311
54	783	37	1651.2727173888
54	803	38	1666.9841167985
54	828	39	1676.8574708926
54	849	40	1685.2999044156
54	871	41	1690.3882118446
54	899	42	1694.559922356
54	920	43	1697.1691198948
55	234	12	0.8
55	256	13	0.8
55	276	14	0.8
55	303	15	0.8
55	324	16	0.8
55	346	17	0.8
55	369	18	0.8
55	390	19	0.8
55	412	20	0.8
55	436	21	0.8
55	456	22	0.8
55	480	23	0.8
55	502	24	0.8
55	522	25	0.8
55	547	26	0.8
55	567	27	0.8
55	589	28	0.29
55	610	29	0
55	630	30	-4.0703333333333
55	653	31	-4.5
55	674	32	0.8
55	696	33	0.46033333333332
55	719	34	0.8
55	739	35	0.8
55	761	36	0.8
55	783	37	0.8
55	803	38	0.8
55	828	39	0.8
55	849	40	0.8
55	871	41	0.8
55	899	42	0.8
55	920	43	0.11
56	234	12	1.4960423838925
56	256	13	1.6897730456371
56	276	14	1.8843550711398
56	303	15	2.08007224832
56	324	16	2.277208365097
56	346	17	2.4760472093901
56	369	18	2.6768725691187
56	390	19	2.8799682322022
56	412	20	3.08561798656
56	436	21	3.2941056201114
56	456	22	3.5057149207757
56	480	23	3.7207296764723
56	502	24	3.9394336751206
56	522	25	4.16211070464
56	547	26	4.3890445529498
56	567	27	4.6205190079693
56	589	28	2.9983851047521
56	610	29	2.0276130047521
56	630	30	0.973
56	653	31	0.973
56	674	32	2.6062561661275
56	696	33	2.1837244412787
56	719	34	2.9260066388064
56	739	35	3.1322701732235
56	761	36	3.3414354391161
56	783	37	3.5537862244034
56	803	38	3.769606317005
56	828	39	3.9891795048401
56	849	40	4.2127895758281
56	871	41	4.4407203178883
56	899	42	4.6732555189402
56	920	43	2.3958369047521
57	256	13	11807.468052162
57	276	14	11808.190883874
57	303	15	11809.636547297
57	324	16	11811.805042432
57	346	17	11814.696369279
57	369	18	11818.310527837
57	390	19	11822.647518108
57	412	20	11827.707340089
57	436	21	11833.489993783
57	456	22	11839.995479188
57	480	23	11847.223796305
57	502	24	11855.174945134
57	522	25	11863.848925674
57	547	26	11873.245737926
57	567	27	11883.36538189
57	589	28	11894.207857565
57	610	29	11905.773164952
57	630	30	11918.061304051
57	653	31	11927.502444937
57	674	32	11932.846212384
57	696	33	11939.151666076
57	719	34	11943.554607528
57	739	35	11947.701163852
57	761	36	11952.292391095
57	783	37	11957.328289258
57	803	38	11962.963934664
57	828	39	11968.525850427
57	849	40	11974.570794763
57	871	41	11980.808208661
57	899	42	11987.452631621
57	920	43	11994.504063646
58	256	13	2276.214952543
58	276	14	2276.5576901968
58	303	15	2277.2431655044
58	324	16	2278.2713784659
58	346	17	2279.6423290811
58	369	18	2281.3560173501
58	390	19	2283.4124432729
58	412	20	2285.8116068496
58	436	21	2288.55350808
58	456	22	2291.6381469643
58	480	23	2295.0655235024
58	502	24	2298.8356376942
58	522	25	2302.9484895399
58	547	26	2307.4040790394
58	567	27	2312.2024061927
58	589	28	2317.3434709998
58	610	29	2322.8272734607
58	630	30	2328.6538135754
58	653	31	2333.1699814651
58	674	32	2335.8230491062
58	696	33	2336.9751526613
58	719	34	2332.1460063506
58	739	35	2325.9446722647
58	761	36	2319.0783157567
58	783	37	2311.5469368267
58	803	38	2303.4571073374
58	828	39	2294.3642877493
58	849	40	2284.634652568
58	871	41	2274.0784592145
58	899	42	2262.8334441088
58	920	43	2250.8996072508
59	256	13	0.8
59	276	14	1.6
59	303	15	2.4
59	324	16	3.2
59	346	17	4
59	369	18	4.8
59	390	19	5.6
59	412	20	6.4
59	436	21	7.2
59	456	22	8
59	480	23	8.8
59	502	24	6.0745
59	522	25	6.8745
59	547	26	7.17
59	567	27	7.97
59	589	28	8.77
59	610	29	9.57
59	630	30	10.37
59	653	31	11.17
59	674	32	11.97
59	696	33	12.77
59	719	34	13.57
59	739	35	14.37
59	761	36	15.17
59	783	37	15.97
59	803	38	16.3825
59	828	39	11.8825
59	849	40	7.3825
59	871	41	8.1825
59	899	42	8.9825
59	920	43	9.7825
60	276	14	12056.55087667
60	303	15	12056.464739677
60	324	16	12056.292465691
60	346	17	12056.034054711
60	369	18	12055.689506739
60	390	19	12055.258821774
60	412	20	12054.741999816
60	436	21	12054.14116774
60	456	22	12053.519675185
60	480	23	12054.719439527
60	502	24	12056.682369099
60	522	25	12057.159519761
60	547	26	12057.722450317
60	567	27	12058.373326394
60	589	28	12059.110990634
60	610	29	12059.932355535
60	630	30	12059.223941027
60	653	31	12052.782991424
60	674	32	12045.63825
60	696	33	12037.68825
60	719	34	12028.93825
60	739	35	12019.38825
60	761	36	12009.03825
60	783	37	11997.89628481
60	803	38	11985.949775868
60	828	39	11973.204340852
60	849	40	11959.65825
60	871	41	11945.30825
60	899	42	11930.15825
60	920	43	11914.20825
61	276	14	1651.7219856165
61	303	15	1652.5175912034
61	324	16	1654.1088023772
61	346	17	1656.495619138
61	369	18	1659.6780414856
61	390	19	1663.6560694201
61	412	20	1668.4297029415
61	436	21	1673.9991718683
61	456	22	1679.7621028292
61	480	23	1682.8704338246
61	502	24	1680.2625774427
61	522	25	1675.8380894882
61	547	26	1670.6181879689
61	567	27	1664.6031069431
61	589	28	1657.7927213251
61	610	29	1650.2095806382
61	630	30	1643.3584644341
61	653	31	1640.9333289243
61	674	32	1640.7365230794
61	696	33	1640.6063943147
61	719	34	1640.4631708315
61	739	35	1640.3068526299
61	761	36	1640.1374397097
61	783	37	1639.9051993671
61	803	38	1639.7708185643
61	828	39	1639.4740946115
61	849	40	1639.1647401575
61	871	41	1638.875778445
61	899	42	1638.6650957649
61	920	43	1638.4633731383
62	276	14	0.8
62	303	15	0.8
62	324	16	0.8
62	346	17	0.8
62	369	18	0.8
62	390	19	0.8
62	412	20	0.8
62	436	21	0.8
62	456	22	0.8
62	480	23	0.8
62	502	24	-2.7255
62	522	25	0.8
62	547	26	0.2955
62	567	27	0.8
62	589	28	0.8
62	610	29	0.8
62	630	30	0.8
62	653	31	0.8
62	674	32	0.8
62	696	33	0.8
62	719	34	0.8
62	739	35	0.8
62	761	36	0.8
62	783	37	0.8
62	803	38	0.41249999999999
62	828	39	-4.5
62	849	40	-4.5
62	871	41	0.8
62	899	42	0.8
62	920	43	0.8
63	276	14	1.4960423838925
63	303	15	1.6897730456371
63	324	16	1.8843550711398
63	346	17	2.08007224832
63	369	18	2.277208365097
63	390	19	2.4760472093901
63	412	20	2.6768725691187
63	436	21	2.8799682322022
63	456	22	3.08561798656
63	480	23	3.2941056201114
63	502	24	0.973
63	522	25	2.7970415562706
63	547	26	2.0005469576509
63	567	27	3.0778566771008
63	589	28	3.2862327686973
63	610	29	3.4977198853597
63	630	30	3.7126018150076
63	653	31	3.9311623455601
63	674	32	4.1536852649367
63	696	33	4.3804543610567
63	719	34	4.6117534218395
63	739	35	4.8478662352044
63	761	36	5.0890765890709
63	783	37	5.3356682713582
63	803	38	3.9350921123992
63	828	39	0.973
63	849	40	0.973
63	871	41	3.1329191470878
63	899	42	3.3420939256956
63	920	43	3.5544551105354
64	276	14	0.8
64	303	15	1.6
64	324	16	2.4
64	346	17	3.2
64	369	18	4
64	390	19	4.8
64	412	20	5.6
64	436	21	6.4
64	456	22	7.2
64	480	23	8
64	502	24	8.8
64	522	25	9.6
64	547	26	10.4
64	567	27	11.2
64	589	28	12
64	610	29	12.8
64	630	30	13.6
64	653	31	10.466333333333
64	674	32	5.9663333333333
64	696	33	6.66
64	719	34	6.66
64	739	35	7.46
64	761	36	8.26
64	783	37	9.06
64	803	38	9.86
64	828	39	10.66
64	849	40	11.46
64	871	41	12.26
64	899	42	13.06
64	920	43	13.86
65	303	15	9889.789822294
65	324	16	9889.662735595
65	346	17	9889.4085621971
65	369	18	9889.0273021002
65	390	19	9888.5189553043
65	412	20	9887.8835218094
65	436	21	9887.1210016155
65	456	22	9886.2313947227
65	480	23	9885.2147011309
65	502	24	9883.4814524904
65	522	25	9877.620880069
65	547	26	9870.4824020708
65	567	27	9862.5573149267
65	589	28	9853.8456186368
65	610	29	9844.347313201
65	630	30	9834.0623986195
65	653	31	9825.5085157895
65	674	32	9819.1170533593
65	696	33	9816.5743219148
65	719	34	9817.6206509928
65	739	35	9818.8397960563
65	761	36	9820.1910977661
65	783	37	9821.6745561224
65	803	38	9823.2591305842
65	828	39	9824.9287149504
65	849	40	9826.6441864144
65	871	41	9828.3460657568
65	899	42	9829.3695952233
65	920	43	9830.5071515571
66	303	15	1751.7840872375
66	324	16	1752.5737479806
66	346	17	1754.1530694669
66	369	18	1756.5220516963
66	390	19	1759.6806946688
66	412	20	1763.6289983845
66	436	21	1768.3669628433
66	456	22	1773.8945880452
66	480	23	1780.2118739903
66	502	24	1786.3419307878
66	522	25	1787.8317773943
66	547	26	1786.5113218292
66	567	27	1785.0453615186
66	589	28	1783.4338964625
66	610	29	1781.6769266609
66	630	30	1779.7744521139
66	653	31	1778.1921789474
66	674	32	1776.6890177864
66	696	33	1771.1604974107
66	719	34	1764.6673656922
66	739	35	1757.3891307226
66	761	36	1749.3219271925
66	783	37	1740.465755102
66	803	38	1730.8144319588
66	828	39	1720.3648492556
66	849	40	1709.1119212159
66	871	41	1697.948153019
66	899	42	1691.2341366832
66	920	43	1683.728566782
67	303	15	0.8
67	324	16	0.8
67	346	17	0.8
67	369	18	0.8
67	390	19	0.8
67	412	20	0.8
67	436	21	0.8
67	456	22	0.8
67	480	23	0.8
67	502	24	0.8
67	522	25	0.8
67	547	26	0.8
67	567	27	0.8
67	589	28	0.8
67	610	29	0.8
67	630	30	0.8
67	653	31	-3.1336666666667
67	674	32	-4.5
67	696	33	0.69366666666666
67	719	34	0
67	739	35	0.8
67	761	36	0.8
67	783	37	0.8
67	803	38	0.8
67	828	39	0.8
67	849	40	0.8
67	871	41	0.8
67	899	42	0.8
67	920	43	0.8
68	303	15	1.4960423838925
68	324	16	1.6897730456371
68	346	17	1.8843550711398
68	369	18	2.08007224832
68	390	19	2.277208365097
68	412	20	2.4760472093901
68	436	21	2.6768725691187
68	456	22	2.8799682322022
68	480	23	3.08561798656
68	502	24	3.2941056201114
68	522	25	3.5057149207757
68	547	26	3.7207296764723
68	567	27	3.9394336751206
68	589	28	4.16211070464
68	610	29	4.3890445529498
68	630	30	4.6205190079693
68	653	31	0.973
68	674	32	0.973
68	696	33	2.5719445075272
68	719	34	1.4585678875272
68	739	35	2.9465105022874
68	761	36	3.1530514393957
68	783	37	3.3625224867714
68	803	38	3.5752074323338
68	828	39	3.7913900640023
68	849	40	4.0113541696963
68	871	41	4.2353835373352
68	899	42	4.4637619548382
68	920	43	4.6967732101248
69	303	15	0.8
69	324	16	1.6
69	346	17	2.4
69	369	18	3.2
69	390	19	4
69	412	20	4.8
69	436	21	5.6
69	456	22	5.7945
69	480	23	3.65
69	502	24	3.65
69	522	25	4.45
69	547	26	5.25
69	567	27	6.05
69	589	28	6.85
69	610	29	7.62725
69	630	30	7.15
69	653	31	7.15
69	674	32	7.15
69	696	33	7.95
69	719	34	8.75
69	739	35	9.55
69	761	36	10.35
69	783	37	11.15
69	803	38	11.95
69	828	39	12.75
69	849	40	13.55
69	871	41	14.35
69	899	42	15.15
69	920	43	15.95
70	324	16	0.8
70	346	17	0.8
70	369	18	0.8
70	390	19	0.8
70	412	20	0.8
70	436	21	0.8
70	456	22	0.1945
70	480	23	-2.1445
70	502	24	0
70	522	25	0.8
70	547	26	0.8
70	567	27	0.8
70	589	28	0.8
70	610	29	0.77725
70	630	30	-0.47725
70	653	31	0
70	674	32	0
70	696	33	0.8
70	719	34	0.8
70	739	35	0.8
70	761	36	0.8
70	783	37	0.8
70	803	38	0.8
70	828	39	0.8
70	849	40	0.8
70	871	41	0.8
70	899	42	0.8
70	920	43	0.8
71	324	16	1.4960423838925
71	346	17	1.6897730456371
71	369	18	1.8843550711398
71	390	19	2.08007224832
71	412	20	2.277208365097
71	436	21	2.4760472093901
71	456	22	1.6791139710717
71	480	23	0.973
71	502	24	1.2905681193451
71	522	25	2.1907685308318
71	547	26	2.38882751262
71	567	27	2.588748852629
71	589	28	2.7908163387781
71	610	29	2.9476439141582
71	630	30	0.973
71	653	31	1.4886828709435
71	674	32	1.4886828709435
71	696	33	3.0726846804974
71	719	34	3.2809866325
71	739	35	3.4923925148706
71	761	36	3.7071861155285
71	783	37	3.9256512223931
71	803	38	4.1480716233838
71	828	39	4.37473110642
71	849	40	4.605913459421
71	871	41	4.8419024703061
71	899	42	5.0829819269947
71	920	43	5.3294356174062
72	324	16	0.8
72	346	17	1.6
72	369	18	2.4
72	390	19	3.2
72	412	20	4
72	436	21	4.8
72	456	22	5.6
72	480	23	6.4
72	502	24	6.46
72	522	25	6.46
72	547	26	7.26
72	567	27	8.06
72	589	28	8.86
72	610	29	9.66
72	630	30	10.46
72	653	31	8.6995
72	674	32	6.58
72	696	33	6.58
72	719	34	6.58
72	739	35	7.38
72	761	36	8.18
72	783	37	8.98
72	803	38	9.78
72	828	39	10.58
72	849	40	11.38
72	871	41	11.289833333333
72	899	42	6.7898333333333
72	920	43	7.5898333333333
73	346	17	10213.21
73	369	18	10213.876689851
73	390	19	10214.486037649
73	412	20	10214.448436987
73	436	21	10213.94817777
73	456	22	10213.216171978
73	480	23	10212.337765028
73	502	24	10211.312956919
73	522	25	10210.141747652
73	547	26	10208.824137226
73	567	27	10207.360125642
73	589	28	10205.749712899
73	610	29	10203.992898998
73	630	30	10202.089683939
73	653	31	10199.9691875
73	674	32	10197.1941875
73	696	33	10194.232037568
73	719	34	10191.084250239
73	739	35	10187.75275
73	761	36	10184.23316426
73	783	37	10181.30335063
73	803	38	10178.37663087
73	828	39	10175.310543501
73	849	40	10172.105088525
73	871	41	10168.276136042
73	899	42	10160.923889561
73	920	43	10147.347680443
74	346	17	1803.95
74	369	18	1804.3917824312
74	390	19	1805.8235287844
74	412	20	1808.214896443
74	436	21	1811.3740363558
74	456	22	1815.3065983188
74	480	23	1820.0256726745
74	502	24	1825.5312594228
74	522	25	1831.8233585636
74	547	26	1838.9019700971
74	567	27	1846.7670940232
74	589	28	1855.4187303419
74	610	29	1864.8568790533
74	630	30	1875.0815401572
74	653	31	1886.0775625
74	674	32	1897.7525625
74	696	33	1910.2061254378
74	719	34	1923.4380897803
74	739	35	1937.44825
74	761	36	1952.2350982906
74	783	37	1967.9604471839
74	803	38	1984.5030930681
74	828	39	2001.8334839944
74	849	40	2019.9516199628
74	871	41	2038.7643036975
74	899	42	2057.1824429203
74	920	43	2072.8839968505
75	346	17	0.8
75	369	18	0.8
75	390	19	0.8
75	412	20	0.8
75	436	21	0.8
75	456	22	0.8
75	480	23	0.8
75	502	24	0.06
75	522	25	0
75	547	26	0.8
75	567	27	0.8
75	589	28	0.8
75	610	29	0.8
75	630	30	0.8
75	653	31	-1.7605
75	674	32	-2.1195
75	696	33	0
75	719	34	0
75	739	35	0.8
75	761	36	0.8
75	783	37	0.8
75	803	38	0.8
75	828	39	0.8
75	849	40	0.8
75	871	41	-0.090166666666672
75	899	42	-4.5
75	920	43	0.8
76	346	17	1.4960423838925
76	369	18	1.6897730456371
76	390	19	1.8843550711398
76	412	20	2.08007224832
76	436	21	2.277208365097
76	456	22	2.4760472093901
76	480	23	2.6768725691187
76	502	24	1.5399460653072
76	522	25	1.4465344653072
76	547	26	2.8952998413428
76	567	27	3.1011525927467
76	589	28	3.3098645074381
76	610	29	3.5217193733363
76	630	30	3.7370009783609
76	653	31	0.973
76	674	32	0.973
76	696	33	1.4537370479454
76	719	34	1.4537370479454
76	739	35	2.9260066388064
76	761	36	3.1322701732235
76	783	37	3.3414354391161
76	803	38	3.5537862244034
76	828	39	3.769606317005
76	849	40	3.9891795048401
76	871	41	1.542225358731
76	899	42	0.973
76	920	43	2.9798430134743
77	369	18	2562.9614975042
77	390	19	2562.378202995
77	412	20	2561.2116139767
77	436	21	2559.4617304493
77	456	22	2557.1285524126
77	480	23	2554.2120798669
77	502	24	2550.712312812
77	522	25	2546.6292512479
77	547	26	2543.6839511216
77	567	27	2542.6383294509
77	589	28	2545.8829051581
77	610	29	2549.7107753744
77	630	30	2554.1219400998
77	653	31	2559.1163993344
77	674	32	2564.6918559557
77	696	33	2570.7835803324
77	719	34	2577.4269268293
77	739	35	2584.6008292683
77	761	36	2592.3457886179
77	783	37	2601.0133023074
77	803	38	2609.8380441362
77	828	39	2614.4257856242
77	849	40	2619.8147294126
77	871	41	2626.0243989076
77	899	42	2633.0576711039
77	920	43	2640.8945090762
78	369	18	1373.9489184692
78	390	19	1373.4012978369
78	412	20	1372.3060565724
78	436	21	1370.6631946755
78	456	22	1368.4727121464
78	480	23	1365.734608985
78	502	24	1362.4488851913
78	522	25	1358.6155407654
78	547	26	1356.6940906746
78	567	27	1359.2647620632
78	589	28	1362.3109018303
78	610	29	1365.9046622296
78	630	30	1370.0460432612
78	653	31	1374.7350449251
78	674	32	1379.9737119114
78	696	33	1385.8196606648
78	719	34	1392.2497268293
78	739	35	1399.2896292683
78	761	36	1406.8899219512
78	783	37	1414.6273382944
78	803	38	1416.8477595628
78	828	39	1417.6094535519
78	849	40	1418.3946621227
78	871	41	1419.0623723385
78	899	42	1419.501132177
78	920	43	1419.9315885438
79	369	18	0.8
79	390	19	1.6
79	412	20	2.4
79	436	21	3.2
79	456	22	4
79	480	23	4.8
79	502	24	5.6
79	522	25	6.4
79	547	26	7.2
79	567	27	8
79	589	28	8.8
79	610	29	9.6
79	630	30	10.4
79	653	31	11.2
79	674	32	12
79	696	33	12.8
79	719	34	13.6
79	739	35	14.4
79	761	36	15.2
79	783	37	16
79	803	38	16.8
79	828	39	17.6
79	849	40	18.4
79	871	41	19.2
79	899	42	20
79	920	43	20.8
80	390	19	4711.1616800163
80	412	20	4711.7376298228
80	436	21	4712.8895294357
80	456	22	4714.6173788552
80	480	23	4716.9211780811
80	502	24	4719.8009271135
80	522	25	4723.2566259523
80	547	26	4728.6735397472
80	567	27	4734.2394996566
80	589	28	4738.0254886499
80	610	29	4742.2321430869
80	630	30	4746.8594629677
80	653	31	4751.9074482921
80	674	32	4757.3760990602
80	696	33	4763.265415272
80	719	34	4769.5753969275
80	739	35	4776.3060440268
80	761	36	4783.4573565697
80	783	37	4789.0153987446
80	803	38	4792.0324548061
80	828	39	4790.1114608806
80	849	40	4784.7825935596
80	871	41	4778.6988468233
80	899	42	4771.9066579634
80	920	43	4764.2479256069
81	390	19	1668.99907887
81	412	20	1669.5542284967
81	436	21	1670.66452775
81	456	22	1672.32997663
81	480	23	1674.5505751367
81	502	24	1677.32632327
81	522	25	1680.65722103
81	547	26	1681.7811781674
81	567	27	1678.8449708671
81	589	28	1672.7213330891
81	610	29	1665.9172911136
81	630	30	1658.4328449405
81	653	31	1650.2679945699
81	674	32	1641.4227400017
81	696	33	1631.897081236
81	719	34	1621.6910182727
81	739	35	1610.8045511119
81	761	36	1599.2376797535
81	783	37	1590.2478392933
81	803	38	1584.9914759335
81	828	39	1579.9089226024
81	849	40	1577.0117493473
81	871	41	1573.8189033943
81	899	42	1570.2542558747
81	920	43	1566.6547109134
82	390	19	0.8
82	412	20	0.8
82	436	21	0.8
82	456	22	0.8
82	480	23	0.8
82	502	24	0.8
82	522	25	0.8
82	547	26	0.8
82	567	27	0.8
82	589	28	0.8
82	610	29	0.8
82	630	30	0.8
82	653	31	0.8
82	674	32	0.8
82	696	33	0.8
82	719	34	0.8
82	739	35	0.8
82	761	36	0.8
82	783	37	0.8
82	803	38	0.8
82	828	39	0.8
82	849	40	0.8
82	871	41	0.8
82	899	42	0.8
82	920	43	0.8
83	390	19	1.4960423838925
83	412	20	1.6897730456371
83	436	21	1.8843550711398
83	456	22	2.08007224832
83	480	23	2.277208365097
83	502	24	2.4760472093901
83	522	25	2.6768725691187
[...]
111	920	43	1830.4883007482
112	522	25	0.8
112	547	26	0.8
112	567	27	0.8
112	589	28	0.8
112	610	29	0.8
112	630	30	0.8
112	653	31	-0.68
112	674	32	-1.27
112	696	33	0
112	719	34	0.8
112	739	35	0.8
112	761	36	0.8
112	783	37	0.8
112	803	38	0.8
112	828	39	0.8
112	849	40	0.8
112	871	41	0.8
112	899	42	0.8
112	920	43	0.8
113	522	25	1.4960423838925
113	547	26	1.6897730456371
113	567	27	1.8843550711398
113	589	28	2.08007224832
113	610	29	2.277208365097
113	630	30	2.4760472093901
113	653	31	0.973
113	674	32	0.973
113	696	33	1.2905681193451
113	719	34	2.1907685308318
113	739	35	2.38882751262
113	761	36	2.588748852629
113	783	37	2.7908163387781
113	803	38	2.9953137589867
113	828	39	3.2025249011742
113	849	40	3.41273355326
113	871	41	3.6262235031634
113	899	42	3.8432785388037
113	920	43	4.0641824481003
114	522	25	0.8
114	547	26	1.6
114	567	27	2.4
114	589	28	3.2
114	610	29	4
114	630	30	4.8
114	653	31	5.6
114	674	32	6.4
114	696	33	4.9795
114	719	34	5.7795
114	739	35	6.5795
114	761	36	7.3795
114	783	37	8.1795
114	803	38	8.9795
114	828	39	9.7795
114	849	40	10.5795
114	871	41	10.407666666667
114	899	42	5.9076666666667
114	920	43	6.7076666666667
115	547	26	4515.9113675214
115	567	27	4515.9774643875
115	589	28	4516.1096581197
115	610	29	4516.3079487179
115	630	30	4516.5723361823
115	653	31	4516.9028205128
115	674	32	4517.1802891216
115	696	33	4515.8642869396
115	719	34	4510.4943865237
115	739	35	4503.3503223546
115	761	36	4495.3783531885
115	783	37	4486.6088834951
115	803	38	4477.0419609665
115	828	39	4466.6774008674
115	849	40	4456.1238204254
115	871	41	4450.054905411
115	899	42	4444.0999245108
115	920	43	4443.2823250756
116	547	26	2084.186951567
116	567	27	2083.3896106363
116	589	28	2081.7949287749
116	610	29	2079.4029059829
116	630	30	2076.2135422602
116	653	31	2072.2268376068
116	674	32	2067.4413990946
116	696	33	2062.1126897805
116	719	34	2059.0843089374
116	739	35	2058.2822634898
116	761	36	2057.6095234758
116	783	37	2056.8883495146
116	803	38	2056.1072862454
116	828	39	2055.2696158612
116	849	40	2054.4166687319
116	871	41	2053.9261751342
116	899	42	2051.7954436662
116	920	43	2045.4466321917
117	547	26	0.8
117	567	27	0.8
117	589	28	0.8
117	610	29	0.8
117	630	30	0.8
117	653	31	0.8
117	674	32	0.8
117	696	33	-1.4205
117	719	34	0.8
117	739	35	0.8
117	761	36	0.8
117	783	37	0.8
117	803	38	0.8
117	828	39	0.8
117	849	40	0.8
117	871	41	-0.17183333333334
117	899	42	-4.5
117	920	43	0.8
118	547	26	1.4960423838925
118	567	27	1.6897730456371
118	589	28	1.8843550711398
118	610	29	2.08007224832
118	630	30	2.277208365097
118	653	31	2.4760472093901
118	674	32	2.6768725691187
118	696	33	0.973
118	719	34	2.5209244637757
118	739	35	2.7222345288919
118	761	36	2.9258785722773
118	783	37	3.1321403818514
118	803	38	3.3413037455335
118	828	39	3.5536524512429
118	849	40	3.7694702868991
118	871	41	1.2852089376278
118	899	42	0.973
118	920	43	2.7546956100221
119	547	26	0.8
119	567	27	1.6
119	589	28	2.4
119	610	29	3.2
119	630	30	4
119	653	31	4.8
119	674	32	5.6
119	696	33	6.4
119	719	34	6.73
119	739	35	6.73
119	761	36	6.73
119	783	37	7.53
119	803	38	6.38
119	828	39	6.38
119	849	40	7.18
119	871	41	7.98
119	899	42	8.78
119	920	43	9.58
120	567	27	11615.950430416
120	589	28	11615.150497932
120	610	29	11613.550632965
120	630	30	11611.150835514
120	653	31	11607.951105579
120	674	32	11603.95144316
120	696	33	11599.151848257
120	719	34	11593.552320871
120	739	35	11587.152861001
120	761	36	11579.953468647
120	783	37	11571.95414381
120	803	38	11563.154886488
120	828	39	11553.555696683
120	849	40	11543.156574394
120	871	41	11531.957519622
120	899	42	11519.958532366
120	920	43	11508.373176864
121	567	27	1579.861420373
121	589	28	1579.866349059
121	610	29	1579.8762064309
121	630	30	1579.8909924888
121	653	31	1579.9107072327
121	674	32	1579.9353506625
121	696	33	1579.9649227783
121	719	34	1579.99942358
121	739	35	1580.0388530678
121	761	36	1580.0832112415
121	783	37	1580.1324981011
121	803	38	1580.1867136467
121	828	39	1580.2458578783
121	849	40	1580.3099307958
121	871	41	1580.3789323994
121	899	42	1580.4528626888
121	920	43	1580.5242444369
122	567	27	0.8
122	589	28	0.8
122	610	29	0.8
122	630	30	0.8
122	653	31	0.8
122	674	32	0.8
122	696	33	0.8
122	719	34	0.33
122	739	35	0
122	761	36	0
122	783	37	0.8
122	803	38	-1.15
122	828	39	0
122	849	40	0.8
122	871	41	0.8
122	899	42	0.8
122	920	43	0.8
123	567	27	1.4960423838925
123	589	28	1.6897730456371
123	610	29	1.8843550711398
123	630	30	2.08007224832
123	653	31	2.277208365097
123	674	32	2.4760472093901
123	696	33	2.6768725691187
123	719	34	1.9980511426267
123	739	35	1.4628142426267
123	761	36	1.4628142426267
123	783	37	2.9644730812465
123	803	38	0.973
123	828	39	1.441761447514
123	849	40	2.8748608943484
123	871	41	3.080443337759
123	899	42	3.2888565656653
123	920	43	3.5003843659865
124	567	27	0.8
124	589	28	1.6
124	610	29	2.4
124	630	30	3.2
124	653	31	4
124	674	32	4.8
124	696	33	5.6
124	719	34	6.4
124	739	35	7.2
124	761	36	8
124	783	37	8.8
124	803	38	9.6
124	828	39	10.4
124	849	40	10.589666666667
124	871	41	6.0896666666667
124	899	42	6.55
124	920	43	6.55
125	589	28	3453.2537124093
125	610	29	3453.2260594539
125	630	30	3453.170753543
125	653	31	3453.0877946768
125	674	32	3452.9771828552
125	696	33	3452.8389180781
125	719	34	3452.6730003457
125	739	35	3452.4794296578
125	761	36	3453.8665493828
125	783	37	3455.6614794331
125	803	38	3455.8152989976
125	828	39	3455.9967715175
125	849	40	3456.2058969927
125	871	41	3456.4426754234
125	899	42	3456.7725641026
125	920	43	3457.2841381766
126	589	28	2068.4264742482
126	610	29	2069.2259211891
126	630	30	2070.8248150709
126	653	31	2073.2231558935
126	674	32	2076.4209436571
126	696	33	2080.4181783616
126	719	34	2085.2148600069
126	739	35	2090.8109885932
126	761	36	2093.8350009377
126	783	37	2091.1508295887
126	803	38	2086.70390598
126	828	39	2081.4575354303
126	849	40	2075.4117179399
126	871	41	2068.5664535085
126	899	42	2060.9253846154
126	920	43	2052.4934401709
127	589	28	0.8
127	610	29	0.8
127	630	30	0.8
127	653	31	0.8
127	674	32	0.8
127	696	33	0.8
127	719	34	0.8
127	739	35	0.8
127	761	36	0.8
127	783	37	0.8
127	803	38	0.8
127	828	39	0.8
127	849	40	0.18966666666667
127	871	41	-4.5
127	899	42	0.46033333333333
127	920	43	0
128	589	28	1.4960423838925
128	610	29	1.6897730456371
128	630	30	1.8843550711398
128	653	31	2.08007224832
128	674	32	2.277208365097
128	696	33	2.4760472093901
128	719	34	2.6768725691187
128	739	35	2.8799682322022
128	761	36	3.08561798656
128	783	37	3.2941056201114
128	803	38	3.5057149207757
128	828	39	3.7207296764723
128	849	40	2.2145989207405
128	871	41	0.973
128	899	42	2.1785906994231
128	920	43	1.4519315160898
129	589	28	0.8
129	610	29	1.6
129	630	30	2.4
129	653	31	3.2
129	674	32	4
129	696	33	4.8
129	719	34	5.6
129	739	35	6.4
129	761	36	7.2
129	783	37	8
129	803	38	8.8
129	828	39	9.6
129	849	40	10.4
129	871	41	11.2
129	899	42	12
129	920	43	11.586333333333
130	610	29	4246.9233288725
130	630	30	4246.8218902643
130	653	31	4246.6190130478
130	674	32	4246.3146972232
130	696	33	4245.9089427902
130	719	34	4245.4017497491
130	739	35	4244.7931180997
130	761	36	4244.0830478421
130	783	37	4243.2715389762
130	803	38	4242.3585915022
130	828	39	4241.3442054199
130	849	40	4240.2283807293
130	871	41	4238.9681566182
130	899	42	4237.5683394521
130	920	43	4236.0153318272
131	610	29	1817.3690498494
131	630	30	1818.1626262964
131	653	31	1819.7497791904
131	674	32	1822.1305085313
131	696	33	1825.3048143192
131	719	34	1829.272696554
131	739	35	1834.0341552359
131	761	36	1839.5891903647
131	783	37	1845.9378019404
131	803	38	1853.0799899632
131	828	39	1861.0157544329
131	849	40	1869.7450953496
131	871	41	1879.2604504504
131	899	42	1889.5645693307
131	920	43	1900.6570290878
132	610	29	0.8
132	630	30	0.8
132	653	31	0.8
132	674	32	0.8
132	696	33	0.8
132	719	34	0.8
132	739	35	0.8
132	761	36	0.8
132	783	37	0.8
132	803	38	0.8
132	828	39	0.8
132	849	40	0.8
132	871	41	0.8
132	899	42	0.8
132	920	43	-0.41366666666667
133	610	29	1.4960423838925
133	630	30	1.6897730456371
133	653	31	1.8843550711398
133	674	32	2.08007224832
133	696	33	2.277208365097
133	719	34	2.4760472093901
133	739	35	2.6768725691187
133	761	36	2.8799682322022
133	783	37	3.08561798656
133	803	38	3.2941056201114
133	828	39	3.5057149207757
133	849	40	3.7207296764723
133	871	41	3.9394336751206
133	899	42	4.16211070464
133	920	43	0.973
134	610	29	0.8
134	630	30	1.6
134	653	31	2.4
134	674	32	3.2
134	696	33	4
134	719	34	4.8
134	739	35	5.6
134	761	36	3.65
134	783	37	3.65
134	803	38	4.45
134	828	39	5.25
134	849	40	6.05
134	871	41	6.85
134	899	42	7.65
134	920	43	8.45
135	630	30	3696.3041856233
135	653	31	3696.6028814073
135	674	32	3697.2002729754
135	696	33	3698.0963603276
135	719	34	3699.2911434638
135	739	35	3700.784622384
135	761	36	3702.5767970883
135	783	37	3704.6676675766
135	803	38	3706.71
135	828	39	3704.59189895
135	849	40	3702.7672399151
135	871	41	3701.1043949045
135	899	42	3699.142611465
135	920	43	3696.8818895966
136	630	30	1517.049699727
136	653	31	1516.3076918411
136	674	32	1514.8236760692
136	696	33	1512.5976524113
136	719	34	1509.6296208675
136	739	35	1505.9195814377
136	761	36	1501.4675341219
136	783	37	1496.2734789202
136	803	38	1491.2
136	828	39	1489.4269427315
136	849	40	1492.44014862
136	871	41	1496.5689171975
136	899	42	1501.4399363057
136	920	43	1507.0532059448
137	630	30	0.8
137	653	31	0.8
137	674	32	0.8
137	696	33	0.8
137	719	34	0.8
137	739	35	0.8
137	761	36	-1.95
137	783	37	0
137	803	38	0.8
137	828	39	0.8
137	849	40	0.8
137	871	41	0.8
137	899	42	0.8
137	920	43	0.8
138	630	30	1.4960423838925
138	653	31	1.6897730456371
138	674	32	1.8843550711398
138	696	33	2.08007224832
138	719	34	2.277208365097
138	739	35	2.4760472093901
138	761	36	0.973
138	783	37	1.2905681193451
138	803	38	2.1907685308318
138	828	39	2.38882751262
138	849	40	2.588748852629
138	871	41	2.7908163387781
138	899	42	2.9953137589867
138	920	43	3.2025249011742
139	630	30	0.8
139	653	31	1.6
139	674	32	2.4
139	696	33	3.2
139	719	34	4
139	739	35	4.8
139	761	36	5.6
139	783	37	6.4
139	803	38	7.2
139	828	39	8
139	849	40	8.8
139	871	41	9.6
139	899	42	10.4
139	920	43	11.2
140	653	31	6509.6417142857
140	674	32	6508.8592380952
140	696	33	6507.2942857143
140	719	34	6504.9468571429
140	739	35	6501.8026695011
140	761	36	6497.8594860248
140	783	37	6493.1276658532
140	803	38	6487.6072089864
140	828	39	6481.3571808347
140	849	40	6474.6133745365
140	871	41	6466.847408323
140	899	42	6458.3048454883
140	920	43	6448.9446102819
141	653	31	2104.5637142857
141	674	32	2104.7305714286
141	696	33	2105.0642857143
141	719	34	2105.5648571429
141	739	35	2106.2411112448
141	761	36	2107.0778264531
141	783	37	2108.0818847032
141	803	38	2109.2532859949
141	828	39	2110.8012796665
141	849	40	2112.8834363412
141	871	41	2114.8018541409
141	899	42	2116.9121137206
141	920	43	2118.9119402985
142	653	31	0.8
142	674	32	0.8
142	696	33	0.8
142	719	34	0.8
142	739	35	0.8
142	761	36	0.8
142	783	37	0.8
142	803	38	0.8
142	828	39	0.8
142	849	40	0.8
142	871	41	0.8
142	899	42	0.8
142	920	43	0.8
143	653	31	1.4960423838925
143	674	32	1.6897730456371
143	696	33	1.8843550711398
143	719	34	2.08007224832
143	739	35	2.277208365097
143	761	36	2.4760472093901
143	783	37	2.6768725691187
143	803	38	2.8799682322022
143	828	39	3.08561798656
143	849	40	3.2941056201114
143	871	41	3.5057149207757
143	899	42	3.7207296764723
143	920	43	3.9394336751206
144	653	31	0.8
144	674	32	1.6
144	696	33	2.4
144	719	34	3.2
144	739	35	4
144	761	36	4.8
144	783	37	5.6
144	803	38	5.47
144	828	39	3.65
144	849	40	3.65
144	871	41	4.45
144	899	42	5.25
144	920	43	6.05
145	674	32	11653.661586219
145	696	33	11654.092906931
145	719	34	11654.955548354
145	739	35	11656.24951049
145	761	36	11657.974793337
145	783	37	11660.131396896
145	803	38	11662.719321167
145	828	39	11665.738566149
145	849	40	11669.20972973
145	871	41	11673.125945946
145	899	42	11677.500487208
145	920	43	11682.330209121
146	674	32	2165.1161923704
146	696	33	2164.4424605936
146	719	34	2163.09499704
146	739	35	2161.0738017096
146	761	36	2158.3788746023
146	783	37	2155.0102157183
146	803	38	2150.9678250574
146	828	39	2146.2517026197
146	849	40	2140.8747027027
146	871	41	2134.8325405405
146	899	42	2128.13389099
146	920	43	2120.7767385984
147	674	32	0.8
147	696	33	0.8
147	719	34	0.8
147	739	35	0.8
147	761	36	0.8
147	783	37	0.8
147	803	38	-0.13
147	828	39	-1.82
147	849	40	0
147	871	41	0.8
147	899	42	0.8
147	920	43	0.8
148	674	32	1.4960423838925
148	696	33	1.6897730456371
148	719	34	1.8843550711398
148	739	35	2.08007224832
148	761	36	2.277208365097
148	783	37	2.4760472093901
148	803	38	1.2176171039913
148	828	39	0.973
148	849	40	1.2905681193451
148	871	41	2.1907685308318
148	899	42	2.38882751262
148	920	43	2.588748852629
149	674	32	0.8
149	696	33	1.6
149	719	34	2.4
149	739	35	3.2
149	761	36	4
149	783	37	4.8
149	803	38	5.6
149	828	39	6.4
149	849	40	7.2
149	871	41	8
149	899	42	8.8
149	920	43	9.6
150	696	33	9831.2573874951
150	719	34	9830.4648208277
150	739	35	9828.8796874928
150	761	36	9826.5019874905
150	783	37	9823.3317208207
150	803	38	9819.3688874835
150	828	39	9814.6134874789
150	849	40	9809.0655208069
150	871	41	9802.7249874674
150	899	42	9795.5930706341
150	920	43	9787.6729920475
151	696	33	1904.8688895805
151	719	34	1904.760480103
151	739	35	1904.5436611478
151	761	36	1904.2184327151
151	783	37	1903.7847948049
151	803	38	1903.2427474171
151	828	39	1902.5922905517
151	849	40	1901.8334242087
151	871	41	1900.9661483882
151	899	42	1899.9819731313
151	920	43	1898.8577805776
152	696	33	0.8
152	719	34	0.8
152	739	35	0.8
152	761	36	0.8
152	783	37	0.8
152	803	38	0.8
152	828	39	0.8
152	849	40	0.8
152	871	41	0.8
152	899	42	0.8
152	920	43	0.8
153	696	33	1.4960423838925
153	719	34	1.6897730456371
153	739	35	1.8843550711398
153	761	36	2.08007224832
153	783	37	2.277208365097
153	803	38	2.4760472093901
153	828	39	2.6768725691187
153	849	40	2.8799682322022
153	871	41	3.08561798656
153	899	42	3.2941056201114
153	920	43	3.5057149207757
154	696	33	0.8
154	719	34	1.6
154	739	35	2.4
154	761	36	3.2
154	783	37	4
154	803	38	4.8
154	828	39	5.6
154	849	40	6.4
154	871	41	7.2
154	899	42	8
154	920	43	8.8
155	719	34	7387.6807298335
155	739	35	7387.5835894153
155	761	36	7387.3893085787
155	783	37	7387.0978873239
155	803	38	7386.7093256509
155	828	39	7386.2236235595
155	849	40	7385.6407810499
155	871	41	7384.9607981221
155	899	42	7384.1836747759
155	920	43	7383.3094110115
156	719	34	1741.8419078105
156	739	35	1742.6359325651
156	761	36	1744.2239820743
156	783	37	1746.606056338
156	803	38	1749.7821553564
156	828	39	1753.7522791293
156	849	40	1758.5164276569
156	871	41	1764.074600939
156	899	42	1770.4267989757
156	920	43	1777.573021767
157	719	34	0.8
157	739	35	0.8
157	761	36	0.8
157	783	37	0.8
157	803	38	0.8
157	828	39	0.8
157	849	40	0.8
157	871	41	0.8
157	899	42	0.8
157	920	43	0.8
158	719	34	1.4960423838925
158	739	35	1.6897730456371
158	761	36	1.8843550711398
158	783	37	2.08007224832
158	803	38	2.277208365097
158	828	39	2.4760472093901
158	849	40	2.6768725691187
158	871	41	2.8799682322022
158	899	42	3.08561798656
158	920	43	3.2941056201114
159	719	34	0.8
159	739	35	1.6
159	761	36	2.4
159	783	37	3.2
159	803	38	4
159	828	39	4.8
159	849	40	5.6
159	871	41	6.4
159	899	42	7.2
159	920	43	8
160	739	35	5222.5740455665
160	761	36	5222.5935036946
160	783	37	5222.6324199507
160	803	38	5222.690794335
160	828	39	5222.7686268473
160	849	40	5222.8659174877
160	871	41	5222.9826662562
160	899	42	5223.1188731527
160	920	43	5223.2745381773
161	739	35	1496.4607850985
161	761	36	1495.6609082512
161	783	37	1494.0611545566
161	803	38	1491.6615240148
161	828	39	1488.4620166256
161	849	40	1484.4626323892
161	871	41	1479.6633713054
161	899	42	1474.0642333744
161	920	43	1467.6652185961
162	739	35	0.8
162	761	36	0.8
162	783	37	0.8
162	803	38	0.8
162	828	39	0.8
162	849	40	0.8
162	871	41	0.8
162	899	42	0.8
162	920	43	0.8
163	739	35	1.4960423838925
163	761	36	1.6897730456371
163	783	37	1.8843550711398
163	803	38	2.08007224832
163	828	39	2.277208365097
163	849	40	2.4760472093901
163	871	41	2.6768725691187
163	899	42	2.8799682322022
163	920	43	3.08561798656
164	739	35	0.8
164	761	36	1.6
164	783	37	2.4
164	803	38	3.2
164	828	39	4
164	849	40	4.8
164	871	41	5.6
164	899	42	6.4
164	920	43	7.2
165	761	36	6827.4870251497
165	783	37	6827.5569024093
165	803	38	6827.7272929087
165	828	39	6827.9828786579
165	849	40	6828.3236596567
165	871	41	6828.7496359052
165	899	42	6829.2608074034
165	920	43	6829.8571741514
166	761	36	1815.3775576529
166	783	37	1814.5819426014
166	803	38	1812.9909630756
166	828	39	1810.6044937868
166	849	40	1807.4225347351
166	871	41	1803.4450859204
166	899	42	1798.6721473428
166	920	43	1793.1037190023
167	761	36	0.8
167	783	37	0.8
167	803	38	0.8
167	828	39	0.8
167	849	40	0.8
167	871	41	0.8
167	899	42	0.8
167	920	43	0.8
168	761	36	1.4960423838925
168	783	37	1.6897730456371
168	803	38	1.8843550711398
168	828	39	2.08007224832
168	849	40	2.277208365097
168	871	41	2.4760472093901
168	899	42	2.6768725691187
168	920	43	2.8799682322022
169	761	36	0.8
169	783	37	1.6
169	803	38	2.4
169	828	39	3.2
169	849	40	4
169	871	41	4.8
169	899	42	5.6
169	920	43	6.4
170	783	37	3074.11
170	803	38	3074.9094497937
170	828	39	3076.508349381
170	849	40	3078.906698762
170	871	41	3082.1044979367
170	899	42	3086.1017469051
170	920	43	3090.8988290155
171	783	37	2006.79
171	803	38	2006.8131086657
171	828	39	2006.8593259972
171	849	40	2006.9286519945
171	871	41	2007.0210866575
171	899	42	2007.1366299862
171	920	43	2007.2744041451
172	783	37	0.8
172	803	38	0.8
172	828	39	0.8
172	849	40	0.8
172	871	41	0.8
172	899	42	0.8
172	920	43	0.8
173	783	37	1.4960423838925
173	803	38	1.6897730456371
173	828	39	1.8843550711398
173	849	40	2.08007224832
173	871	41	2.277208365097
173	899	42	2.4760472093901
173	920	43	2.6768725691187
174	783	37	0.8
174	803	38	1.6
174	828	39	2.4
174	849	40	3.2
174	871	41	4
174	899	42	4.8
174	920	43	5.6
175	803	38	2837.2656730138
175	828	39	2837.0030334865
175	849	40	2836.477754432
175	871	41	2835.6898358503
175	899	42	2834.6392777413
175	920	43	2833.3260801051
176	803	38	1423.1087130663
176	828	39	1423.8645896257
176	849	40	1425.3763427446
176	871	41	1427.6439724228
176	899	42	1430.6674786605
176	920	43	1434.4468614576
177	803	38	0.8
177	828	39	0.8
177	849	40	0.8
177	871	41	0.8
177	899	42	0.8
177	920	43	0.8
178	803	38	1.4960423838925
178	828	39	1.6897730456371
178	849	40	1.8843550711398
178	871	41	2.08007224832
178	899	42	2.277208365097
178	920	43	2.4760472093901
179	803	38	0.8
179	828	39	1.6
179	849	40	2.4
179	871	41	3.2
179	899	42	4
179	920	43	4.8
180	828	39	5193.88
180	849	40	5194.0552433936
180	871	41	5194.4057301808
180	899	42	5194.9314603616
180	920	43	5195.632433936
181	828	39	1710.52
181	849	40	1709.7389151599
181	871	41	1708.1767454798
181	899	42	1705.8334909597
181	920	43	1702.7091515994
182	828	39	0.8
182	849	40	0.8
182	871	41	0.8
182	899	42	0.8
182	920	43	0.8
183	828	39	1.4960423838925
183	849	40	1.6897730456371
183	871	41	1.8843550711398
183	899	42	2.08007224832
183	920	43	2.277208365097
184	828	39	0.8
184	849	40	1.6
184	871	41	2.4
184	899	42	3.2
184	920	43	4
185	849	40	10652.766851409
185	871	41	10653.563220258
185	899	42	10655.155957955
185	920	43	10657.545064501
186	849	40	1515.8785570951
186	871	41	1515.9551935021
186	899	42	1516.1084663163
186	920	43	1516.3383755375
187	849	40	0.8
187	871	41	0.8
187	899	42	0.8
187	920	43	0.8
188	849	40	1.4960423838925
188	871	41	1.6897730456371
188	899	42	1.8843550711398
188	920	43	2.08007224832
189	849	40	0.8
189	871	41	1.6
189	899	42	2.4
189	920	43	3.2
190	871	41	12023.801102643
190	899	42	12023.085981489
190	920	43	12021.655739181
191	871	41	2171.4932166636
191	899	42	2171.134505552
191	920	43	2170.4170833288
192	871	41	0.8
192	899	42	0.8
192	920	43	0.8
193	871	41	1.4960423838925
193	899	42	1.6897730456371
193	920	43	1.8843550711398
194	871	41	0.8
194	899	42	1.6
194	920	43	2.4
195	899	42	10423.027427542
195	920	43	10422.248984803
196	899	42	2062.5230769231
196	920	43	2062.3384615385
197	899	42	0.8
197	920	43	0.8
198	899	42	1.4960423838925
198	920	43	1.6897730456371
199	899	42	0.8
199	920	43	1.6
200	920	43	3650.2158904559
201	920	43	2115.8977205641
202	920	43	0.8
203	920	43	1.4960423838925
204	920	43	0.8

