version 2
run Default-0-20250207-18:16:15-36844
attr configname Default
attr datetime 20250207-18:16:15
attr experiment Default
attr inifile omnetpp.ini
attr iterationvars ""
attr iterationvarsf ""
attr measurement ""
attr network RSUExampleScenario
attr processid 36844
attr repetition 0
attr replication #0
attr resultdir results
attr runnumber 0
attr seedset 0
param *.playgroundSizeX 2500m
param *.playgroundSizeY 2500m
param *.playgroundSizeZ 50m
param *.annotations.draw true
param *.obstacles.obstacles "xmldoc(\"config.xml\", \"//AnalogueModel[@type='SimpleObstacleShadowing']/obstacles\")"
param *.manager.host "\"localhost\""
param *.manager.port 9999
param *.manager.order 1
param *.manager.updateInterval 1s
param *.manager.trafficLightModuleType "\"org.car2x.veins.nodes.TrafficLight\""
param *.tls[*].mobility.x 0
param *.tls[*].mobility.y 0
param *.tls[*].mobility.z 3
param *.tls[*].applType "\"org.car2x.veins.modules.application.traci.TraCIDemoTrafficLightApp\""
param *.tls[*].logicType "\"org.car2x.veins.modules.world.traci.trafficLight.logics.TraCITrafficLightSimpleLogic\""
param *.rsu[0].mobility.x 2000
param *.rsu[0].mobility.y 2000
param *.rsu[0].mobility.z 3
param *.rsu[*].applType "\"TraCIDemoRSU11p\""
param *.rsu[*].appl.headerLength "80 bit"
param *.rsu[*].appl.sendBeacons false
param *.rsu[*].appl.dataOnSch false
param *.rsu[*].appl.beaconInterval 1s
param *.rsu[*].appl.beaconUserPriority 7
param *.rsu[*].appl.dataUserPriority 5
param *.rsu[*].nic.phy80211p.antennaOffsetZ "0 m"
param *.connectionManager.sendDirect true
param *.connectionManager.maxInterfDist 2600m
param *.connectionManager.drawMaxIntfDist false
param *.**.nic.mac1609_4.useServiceChannel false
param *.**.nic.mac1609_4.txPower 20mW
param *.**.nic.mac1609_4.bitrate 6Mbps
param *.**.nic.phy80211p.minPowerLevel -110dBm
param *.**.nic.phy80211p.useNoiseFloor true
param *.**.nic.phy80211p.noiseFloor -98dBm
param *.**.nic.phy80211p.decider "xmldoc(\"config.xml\")"
param *.**.nic.phy80211p.analogueModels "xmldoc(\"config.xml\")"
param *.**.nic.phy80211p.usePropagationDelay true
param *.**.nic.phy80211p.antenna "xmldoc(\"antenna.xml\", \"/root/Antenna[@id='monopole']\")"
param *.node[*].nic.phy80211p.antennaOffsetY "0 m"
param *.node[*].nic.phy80211p.antennaOffsetZ "1.895 m"
param *.node[*].applType "\"TraCIDemo11p\""
param *.node[*].appl.headerLength "80 bit"
param *.node[*].appl.sendBeacons false
param *.node[*].appl.dataOnSch false
param *.node[*].appl.beaconInterval 1s
param *.node[*].veinsmobility.x 0
param *.node[*].veinsmobility.y 0
param *.node[*].veinsmobility.z 0
param *.node[*].veinsmobility.setHostSpeed false
param *.node[*0].veinsmobility.accidentCount 1
param *.node[*0].veinsmobility.accidentStart 73s
param *.node[*0].veinsmobility.accidentDuration 50s

vector 0 RSUExampleScenario.node[0].veinsmobility posx ETV
vector 1 RSUExampleScenario.node[0].veinsmobility posy ETV
vector 2 RSUExampleScenario.node[0].veinsmobility speed ETV
vector 3 RSUExampleScenario.node[0].veinsmobility acceleration ETV
vector 4 RSUExampleScenario.node[0].veinsmobility co2emission ETV
vector 5 RSUExampleScenario.node[1].veinsmobility posx ETV
vector 6 RSUExampleScenario.node[1].veinsmobility posy ETV
vector 7 RSUExampleScenario.node[1].veinsmobility speed ETV
vector 8 RSUExampleScenario.node[2].veinsmobility posx ETV
vector 9 RSUExampleScenario.node[2].veinsmobility posy ETV
vector 10 RSUExampleScenario.node[1].veinsmobility acceleration ETV
vector 11 RSUExampleScenario.node[1].veinsmobility co2emission ETV
vector 12 RSUExampleScenario.node[2].veinsmobility speed ETV
vector 13 RSUExampleScenario.node[3].veinsmobility posx ETV
vector 14 RSUExampleScenario.node[3].veinsmobility posy ETV
vector 15 RSUExampleScenario.node[2].veinsmobility acceleration ETV
vector 16 RSUExampleScenario.node[2].veinsmobility co2emission ETV
vector 17 RSUExampleScenario.node[3].veinsmobility speed ETV
vector 18 RSUExampleScenario.node[4].veinsmobility posx ETV
vector 19 RSUExampleScenario.node[4].veinsmobility posy ETV
vector 20 RSUExampleScenario.node[3].veinsmobility acceleration ETV
vector 21 RSUExampleScenario.node[3].veinsmobility co2emission ETV
vector 22 RSUExampleScenario.node[4].veinsmobility speed ETV
vector 23 RSUExampleScenario.node[4].veinsmobility acceleration ETV
vector 24 RSUExampleScenario.node[4].veinsmobility co2emission ETV
vector 25 RSUExampleScenario.node[5].veinsmobility posx ETV
vector 26 RSUExampleScenario.node[5].veinsmobility posy ETV
vector 27 RSUExampleScenario.node[5].veinsmobility speed ETV
vector 28 RSUExampleScenario.node[5].veinsmobility acceleration ETV
vector 29 RSUExampleScenario.node[5].veinsmobility co2emission ETV
vector 30 RSUExampleScenario.node[6].veinsmobility posx ETV
vector 31 RSUExampleScenario.node[6].veinsmobility posy ETV
vector 32 RSUExampleScenario.node[6].veinsmobility speed ETV
vector 33 RSUExampleScenario.node[6].veinsmobility acceleration ETV
vector 34 RSUExampleScenario.node[6].veinsmobility co2emission ETV
vector 35 RSUExampleScenario.node[7].veinsmobility posx ETV
vector 36 RSUExampleScenario.node[7].veinsmobility posy ETV
vector 37 RSUExampleScenario.node[7].veinsmobility speed ETV
vector 38 RSUExampleScenario.node[7].veinsmobility acceleration ETV
vector 39 RSUExampleScenario.node[7].veinsmobility co2emission ETV
vector 40 RSUExampleScenario.node[8].veinsmobility posx ETV
vector 41 RSUExampleScenario.node[8].veinsmobility posy ETV
vector 42 RSUExampleScenario.node[8].veinsmobility speed ETV
vector 43 RSUExampleScenario.node[8].veinsmobility acceleration ETV
vector 44 RSUExampleScenario.node[8].veinsmobility co2emission ETV
vector 45 RSUExampleScenario.node[9].veinsmobility posx ETV
vector 46 RSUExampleScenario.node[9].veinsmobility posy ETV
vector 47 RSUExampleScenario.node[9].veinsmobility speed ETV
vector 48 RSUExampleScenario.node[9].veinsmobility acceleration ETV
vector 49 RSUExampleScenario.node[9].veinsmobility co2emission ETV
vector 50 RSUExampleScenario.node[10].veinsmobility posx ETV
vector 51 RSUExampleScenario.node[10].veinsmobility posy ETV
vector 52 RSUExampleScenario.node[10].veinsmobility speed ETV
vector 53 RSUExampleScenario.node[10].veinsmobility acceleration ETV
vector 54 RSUExampleScenario.node[10].veinsmobility co2emission ETV
vector 55 RSUExampleScenario.node[11].veinsmobility posx ETV
vector 56 RSUExampleScenario.node[11].veinsmobility posy ETV
vector 57 RSUExampleScenario.node[11].veinsmobility speed ETV
vector 58 RSUExampleScenario.node[11].veinsmobility acceleration ETV
vector 59 RSUExampleScenario.node[11].veinsmobility co2emission ETV
vector 60 RSUExampleScenario.node[12].veinsmobility posx ETV
vector 61 RSUExampleScenario.node[12].veinsmobility posy ETV
vector 62 RSUExampleScenario.node[12].veinsmobility speed ETV
vector 63 RSUExampleScenario.node[12].veinsmobility acceleration ETV
vector 64 RSUExampleScenario.node[12].veinsmobility co2emission ETV
vector 65 RSUExampleScenario.node[13].veinsmobility posx ETV
vector 66 RSUExampleScenario.node[13].veinsmobility posy ETV
vector 67 RSUExampleScenario.node[13].veinsmobility speed ETV
vector 68 RSUExampleScenario.node[13].veinsmobility acceleration ETV
vector 69 RSUExampleScenario.node[13].veinsmobility co2emission ETV
vector 70 RSUExampleScenario.node[14].veinsmobility posx ETV
vector 71 RSUExampleScenario.node[14].veinsmobility posy ETV
vector 72 RSUExampleScenario.node[14].veinsmobility speed ETV
vector 73 RSUExampleScenario.node[14].veinsmobility acceleration ETV
vector 74 RSUExampleScenario.node[14].veinsmobility co2emission ETV
vector 75 RSUExampleScenario.node[15].veinsmobility posx ETV
vector 76 RSUExampleScenario.node[15].veinsmobility posy ETV
vector 77 RSUExampleScenario.node[15].veinsmobility speed ETV
vector 78 RSUExampleScenario.node[15].veinsmobility acceleration ETV
vector 79 RSUExampleScenario.node[15].veinsmobility co2emission ETV
vector 80 RSUExampleScenario.node[16].veinsmobility posx ETV
vector 81 RSUExampleScenario.node[16].veinsmobility posy ETV
vector 82 RSUExampleScenario.node[16].veinsmobility speed ETV
vector 83 RSUExampleScenario.node[16].veinsmobility acceleration ETV
vector 84 RSUExampleScenario.node[16].veinsmobility co2emission ETV
vector 85 RSUExampleScenario.node[17].veinsmobility posx ETV
vector 86 RSUExampleScenario.node[17].veinsmobility posy ETV
vector 87 RSUExampleScenario.node[17].veinsmobility speed ETV
vector 88 RSUExampleScenario.node[17].veinsmobility acceleration ETV
vector 89 RSUExampleScenario.node[17].veinsmobility co2emission ETV
vector 90 RSUExampleScenario.node[18].veinsmobility posx ETV
vector 91 RSUExampleScenario.node[18].veinsmobility posy ETV
vector 92 RSUExampleScenario.node[18].veinsmobility speed ETV
vector 93 RSUExampleScenario.node[18].veinsmobility acceleration ETV
vector 94 RSUExampleScenario.node[18].veinsmobility co2emission ETV
vector 95 RSUExampleScenario.node[19].veinsmobility posx ETV
vector 96 RSUExampleScenario.node[19].veinsmobility posy ETV
vector 97 RSUExampleScenario.node[19].veinsmobility speed ETV
vector 98 RSUExampleScenario.node[19].veinsmobility acceleration ETV
vector 99 RSUExampleScenario.node[19].veinsmobility co2emission ETV
vector 100 RSUExampleScenario.node[20].veinsmobility posx ETV
vector 101 RSUExampleScenario.node[20].veinsmobility posy ETV
vector 102 RSUExampleScenario.node[20].veinsmobility speed ETV
vector 103 RSUExampleScenario.node[20].veinsmobility acceleration ETV
vector 104 RSUExampleScenario.node[20].veinsmobility co2emission ETV
vector 105 RSUExampleScenario.node[21].veinsmobility posx ETV
vector 106 RSUExampleScenario.node[21].veinsmobility posy ETV
vector 107 RSUExampleScenario.node[21].veinsmobility speed ETV
vector 108 RSUExampleScenario.node[21].veinsmobility acceleration ETV
vector 109 RSUExampleScenario.node[21].veinsmobility co2emission ETV
vector 110 RSUExampleScenario.node[22].veinsmobility posx ETV
vector 111 RSUExampleScenario.node[22].veinsmobility posy ETV
vector 112 RSUExampleScenario.node[22].veinsmobility speed ETV
vector 113 RSUExampleScenario.node[22].veinsmobility acceleration ETV
vector 114 RSUExampleScenario.node[22].veinsmobility co2emission ETV
vector 115 RSUExampleScenario.node[23].veinsmobility posx ETV
vector 116 RSUExampleScenario.node[23].veinsmobility posy ETV
vector 117 RSUExampleScenario.node[23].veinsmobility speed ETV
vector 118 RSUExampleScenario.node[23].veinsmobility acceleration ETV
vector 119 RSUExampleScenario.node[23].veinsmobility co2emission ETV
vector 120 RSUExampleScenario.node[24].veinsmobility posx ETV
vector 121 RSUExampleScenario.node[24].veinsmobility posy ETV
vector 122 RSUExampleScenario.node[24].veinsmobility speed ETV
vector 123 RSUExampleScenario.node[24].veinsmobility acceleration ETV
vector 124 RSUExampleScenario.node[24].veinsmobility co2emission ETV
vector 125 RSUExampleScenario.node[25].veinsmobility posx ETV
vector 126 RSUExampleScenario.node[25].veinsmobility posy ETV
vector 127 RSUExampleScenario.node[25].veinsmobility speed ETV
vector 128 RSUExampleScenario.node[25].veinsmobility acceleration ETV
vector 129 RSUExampleScenario.node[25].veinsmobility co2emission ETV
vector 130 RSUExampleScenario.node[26].veinsmobility posx ETV
vector 131 RSUExampleScenario.node[26].veinsmobility posy ETV
vector 132 RSUExampleScenario.node[26].veinsmobility speed ETV
vector 133 RSUExampleScenario.node[26].veinsmobility acceleration ETV
vector 134 RSUExampleScenario.node[26].veinsmobility co2emission ETV
vector 135 RSUExampleScenario.node[27].veinsmobility posx ETV
vector 136 RSUExampleScenario.node[27].veinsmobility posy ETV
vector 137 RSUExampleScenario.node[27].veinsmobility speed ETV
vector 138 RSUExampleScenario.node[27].veinsmobility acceleration ETV
vector 139 RSUExampleScenario.node[27].veinsmobility co2emission ETV
vector 140 RSUExampleScenario.node[28].veinsmobility posx ETV
vector 141 RSUExampleScenario.node[28].veinsmobility posy ETV
vector 142 RSUExampleScenario.node[28].veinsmobility speed ETV
vector 143 RSUExampleScenario.node[28].veinsmobility acceleration ETV
vector 144 RSUExampleScenario.node[28].veinsmobility co2emission ETV
vector 145 RSUExampleScenario.node[29].veinsmobility posx ETV
vector 146 RSUExampleScenario.node[29].veinsmobility posy ETV
vector 147 RSUExampleScenario.node[29].veinsmobility speed ETV
vector 148 RSUExampleScenario.node[29].veinsmobility acceleration ETV
vector 149 RSUExampleScenario.node[29].veinsmobility co2emission ETV
vector 150 RSUExampleScenario.node[30].veinsmobility posx ETV
vector 151 RSUExampleScenario.node[30].veinsmobility posy ETV
vector 152 RSUExampleScenario.node[30].veinsmobility speed ETV
vector 153 RSUExampleScenario.node[30].veinsmobility acceleration ETV
vector 154 RSUExampleScenario.node[30].veinsmobility co2emission ETV
vector 155 RSUExampleScenario.node[31].veinsmobility posx ETV
vector 156 RSUExampleScenario.node[31].veinsmobility posy ETV
vector 157 RSUExampleScenario.node[31].veinsmobility speed ETV
vector 158 RSUExampleScenario.node[31].veinsmobility acceleration ETV
vector 159 RSUExampleScenario.node[31].veinsmobility co2emission ETV
vector 160 RSUExampleScenario.node[32].veinsmobility posx ETV
vector 161 RSUExampleScenario.node[32].veinsmobility posy ETV
vector 162 RSUExampleScenario.node[32].veinsmobility speed ETV
vector 163 RSUExampleScenario.node[32].veinsmobility acceleration ETV
vector 164 RSUExampleScenario.node[32].veinsmobility co2emission ETV
vector 165 RSUExampleScenario.node[33].veinsmobility posx ETV
vector 166 RSUExampleScenario.node[33].veinsmobility posy ETV
vector 167 RSUExampleScenario.node[33].veinsmobility speed ETV
vector 168 RSUExampleScenario.node[33].veinsmobility acceleration ETV
vector 169 RSUExampleScenario.node[33].veinsmobility co2emission ETV
vector 170 RSUExampleScenario.node[34].veinsmobility posx ETV
vector 171 RSUExampleScenario.node[34].veinsmobility posy ETV
vector 172 RSUExampleScenario.node[34].veinsmobility speed ETV
vector 173 RSUExampleScenario.node[34].veinsmobility acceleration ETV
vector 174 RSUExampleScenario.node[34].veinsmobility co2emission ETV
vector 175 RSUExampleScenario.node[35].veinsmobility posx ETV
vector 176 RSUExampleScenario.node[35].veinsmobility posy ETV
vector 177 RSUExampleScenario.node[35].veinsmobility speed ETV
vector 178 RSUExampleScenario.node[35].veinsmobility acceleration ETV
vector 179 RSUExampleScenario.node[35].veinsmobility co2emission ETV
vector 180 RSUExampleScenario.node[36].veinsmobility posx ETV
vector 181 RSUExampleScenario.node[36].veinsmobility posy ETV
vector 182 RSUExampleScenario.node[36].veinsmobility speed ETV
vector 183 RSUExampleScenario.node[36].veinsmobility acceleration ETV
vector 184 RSUExampleScenario.node[36].veinsmobility co2emission ETV
vector 185 RSUExampleScenario.node[37].veinsmobility posx ETV
vector 186 RSUExampleScenario.node[37].veinsmobility posy ETV
vector 187 RSUExampleScenario.node[37].veinsmobility speed ETV
vector 188 RSUExampleScenario.node[37].veinsmobility acceleration ETV
vector 189 RSUExampleScenario.node[37].veinsmobility co2emission ETV
vector 190 RSUExampleScenario.node[38].veinsmobility posx ETV
vector 191 RSUExampleScenario.node[38].veinsmobility posy ETV
vector 192 RSUExampleScenario.node[38].veinsmobility speed ETV
vector 193 RSUExampleScenario.node[38].veinsmobility acceleration ETV
vector 194 RSUExampleScenario.node[38].veinsmobility co2emission ETV
vector 195 RSUExampleScenario.node[39].veinsmobility posx ETV
vector 196 RSUExampleScenario.node[39].veinsmobility posy ETV
vector 197 RSUExampleScenario.node[39].veinsmobility speed ETV
vector 198 RSUExampleScenario.node[39].veinsmobility acceleration ETV
vector 199 RSUExampleScenario.node[39].veinsmobility co2emission ETV
vector 200 RSUExampleScenario.node[40].veinsmobility posx ETV
vector 201 RSUExampleScenario.node[40].veinsmobility posy ETV
vector 202 RSUExampleScenario.node[40].veinsmobility speed ETV
vector 203 RSUExampleScenario.node[40].veinsmobility acceleration ETV
vector 204 RSUExampleScenario.node[40].veinsmobility co2emission ETV
vector 205 RSUExampleScenario.node[41].veinsmobility posx ETV
vector 206 RSUExampleScenario.node[41].veinsmobility posy ETV
vector 207 RSUExampleScenario.node[41].veinsmobility speed ETV
vector 208 RSUExampleScenario.node[41].veinsmobility acceleration ETV
vector 209 RSUExampleScenario.node[41].veinsmobility co2emission ETV
vector 210 RSUExampleScenario.node[42].veinsmobility posx ETV
vector 211 RSUExampleScenario.node[42].veinsmobility posy ETV
vector 212 RSUExampleScenario.node[42].veinsmobility speed ETV
vector 213 RSUExampleScenario.node[42].veinsmobility acceleration ETV
vector 214 RSUExampleScenario.node[42].veinsmobility co2emission ETV
vector 215 RSUExampleScenario.node[43].veinsmobility posx ETV
vector 216 RSUExampleScenario.node[43].veinsmobility posy ETV
vector 217 RSUExampleScenario.node[43].veinsmobility speed ETV
vector 218 RSUExampleScenario.node[43].veinsmobility acceleration ETV
vector 219 RSUExampleScenario.node[43].veinsmobility co2emission ETV
vector 220 RSUExampleScenario.node[44].veinsmobility posx ETV
vector 221 RSUExampleScenario.node[44].veinsmobility posy ETV
vector 222 RSUExampleScenario.node[44].veinsmobility speed ETV
vector 223 RSUExampleScenario.node[44].veinsmobility acceleration ETV
vector 224 RSUExampleScenario.node[44].veinsmobility co2emission ETV
vector 225 RSUExampleScenario.node[45].veinsmobility posx ETV
vector 226 RSUExampleScenario.node[45].veinsmobility posy ETV
vector 227 RSUExampleScenario.node[45].veinsmobility speed ETV
vector 228 RSUExampleScenario.node[45].veinsmobility acceleration ETV
vector 229 RSUExampleScenario.node[45].veinsmobility co2emission ETV
vector 230 RSUExampleScenario.node[46].veinsmobility posx ETV
vector 231 RSUExampleScenario.node[46].veinsmobility posy ETV
vector 232 RSUExampleScenario.node[46].veinsmobility speed ETV
vector 233 RSUExampleScenario.node[46].veinsmobility acceleration ETV
vector 234 RSUExampleScenario.node[46].veinsmobility co2emission ETV
vector 235 RSUExampleScenario.node[47].veinsmobility posx ETV
vector 236 RSUExampleScenario.node[47].veinsmobility posy ETV
vector 237 RSUExampleScenario.node[47].veinsmobility speed ETV
vector 238 RSUExampleScenario.node[47].veinsmobility acceleration ETV
vector 239 RSUExampleScenario.node[47].veinsmobility co2emission ETV
vector 240 RSUExampleScenario.node[48].veinsmobility posx ETV
vector 241 RSUExampleScenario.node[48].veinsmobility posy ETV
vector 242 RSUExampleScenario.node[48].veinsmobility speed ETV
vector 243 RSUExampleScenario.node[48].veinsmobility acceleration ETV
vector 244 RSUExampleScenario.node[48].veinsmobility co2emission ETV
vector 245 RSUExampleScenario.node[49].veinsmobility posx ETV
vector 246 RSUExampleScenario.node[49].veinsmobility posy ETV
vector 247 RSUExampleScenario.node[49].veinsmobility speed ETV
vector 248 RSUExampleScenario.node[49].veinsmobility acceleration ETV
vector 249 RSUExampleScenario.node[49].veinsmobility co2emission ETV
vector 250 RSUExampleScenario.node[50].veinsmobility posx ETV
vector 251 RSUExampleScenario.node[50].veinsmobility posy ETV
vector 252 RSUExampleScenario.node[50].veinsmobility speed ETV
vector 253 RSUExampleScenario.node[50].veinsmobility acceleration ETV
vector 254 RSUExampleScenario.node[50].veinsmobility co2emission ETV
vector 255 RSUExampleScenario.node[51].veinsmobility posx ETV
vector 256 RSUExampleScenario.node[51].veinsmobility posy ETV
vector 257 RSUExampleScenario.node[51].veinsmobility speed ETV
vector 258 RSUExampleScenario.node[51].veinsmobility acceleration ETV
vector 259 RSUExampleScenario.node[51].veinsmobility co2emission ETV
vector 260 RSUExampleScenario.node[52].veinsmobility posx ETV
vector 261 RSUExampleScenario.node[52].veinsmobility posy ETV
vector 262 RSUExampleScenario.node[52].veinsmobility speed ETV
vector 263 RSUExampleScenario.node[52].veinsmobility acceleration ETV
vector 264 RSUExampleScenario.node[52].veinsmobility co2emission ETV
vector 265 RSUExampleScenario.node[53].veinsmobility posx ETV
vector 266 RSUExampleScenario.node[53].veinsmobility posy ETV
vector 267 RSUExampleScenario.node[53].veinsmobility speed ETV
vector 268 RSUExampleScenario.node[53].veinsmobility acceleration ETV
vector 269 RSUExampleScenario.node[53].veinsmobility co2emission ETV
vector 270 RSUExampleScenario.node[54].veinsmobility posx ETV
vector 271 RSUExampleScenario.node[54].veinsmobility posy ETV
vector 272 RSUExampleScenario.node[54].veinsmobility speed ETV
vector 273 RSUExampleScenario.node[54].veinsmobility acceleration ETV
vector 274 RSUExampleScenario.node[54].veinsmobility co2emission ETV
vector 275 RSUExampleScenario.node[55].veinsmobility posx ETV
vector 276 RSUExampleScenario.node[55].veinsmobility posy ETV
vector 277 RSUExampleScenario.node[55].veinsmobility speed ETV
vector 278 RSUExampleScenario.node[55].veinsmobility acceleration ETV
vector 279 RSUExampleScenario.node[55].veinsmobility co2emission ETV
vector 280 RSUExampleScenario.node[56].veinsmobility posx ETV
vector 281 RSUExampleScenario.node[56].veinsmobility posy ETV
vector 282 RSUExampleScenario.node[56].veinsmobility speed ETV
vector 283 RSUExampleScenario.node[56].veinsmobility acceleration ETV
vector 284 RSUExampleScenario.node[56].veinsmobility co2emission ETV
vector 285 RSUExampleScenario.node[57].veinsmobility posx ETV
vector 286 RSUExampleScenario.node[57].veinsmobility posy ETV
vector 287 RSUExampleScenario.node[57].veinsmobility speed ETV
vector 288 RSUExampleScenario.node[57].veinsmobility acceleration ETV
vector 289 RSUExampleScenario.node[57].veinsmobility co2emission ETV
vector 290 RSUExampleScenario.node[58].veinsmobility posx ETV
vector 291 RSUExampleScenario.node[58].veinsmobility posy ETV
vector 292 RSUExampleScenario.node[58].veinsmobility speed ETV
vector 293 RSUExampleScenario.node[58].veinsmobility acceleration ETV
vector 294 RSUExampleScenario.node[58].veinsmobility co2emission ETV
vector 295 RSUExampleScenario.node[59].veinsmobility posx ETV
vector 296 RSUExampleScenario.node[59].veinsmobility posy ETV
vector 297 RSUExampleScenario.node[59].veinsmobility speed ETV
vector 298 RSUExampleScenario.node[59].veinsmobility acceleration ETV
vector 299 RSUExampleScenario.node[59].veinsmobility co2emission ETV
vector 300 RSUExampleScenario.node[60].veinsmobility posx ETV
vector 301 RSUExampleScenario.node[60].veinsmobility posy ETV
vector 302 RSUExampleScenario.node[60].veinsmobility speed ETV
vector 303 RSUExampleScenario.node[60].veinsmobility acceleration ETV
vector 304 RSUExampleScenario.node[60].veinsmobility co2emission ETV
vector 305 RSUExampleScenario.node[61].veinsmobility posx ETV
vector 306 RSUExampleScenario.node[61].veinsmobility posy ETV
vector 307 RSUExampleScenario.node[61].veinsmobility speed ETV
vector 308 RSUExampleScenario.node[61].veinsmobility acceleration ETV
vector 309 RSUExampleScenario.node[61].veinsmobility co2emission ETV
vector 310 RSUExampleScenario.node[62].veinsmobility posx ETV
vector 311 RSUExampleScenario.node[62].veinsmobility posy ETV
vector 312 RSUExampleScenario.node[62].veinsmobility speed ETV
vector 313 RSUExampleScenario.node[62].veinsmobility acceleration ETV
vector 314 RSUExampleScenario.node[62].veinsmobility co2emission ETV
vector 315 RSUExampleScenario.node[63].veinsmobility posx ETV
vector 316 RSUExampleScenario.node[63].veinsmobility posy ETV
vector 317 RSUExampleScenario.node[63].veinsmobility speed ETV
vector 318 RSUExampleScenario.node[63].veinsmobility acceleration ETV
vector 319 RSUExampleScenario.node[63].veinsmobility co2emission ETV
vector 320 RSUExampleScenario.node[64].veinsmobility posx ETV
vector 321 RSUExampleScenario.node[64].veinsmobility posy ETV
vector 322 RSUExampleScenario.node[64].veinsmobility speed ETV
vector 323 RSUExampleScenario.node[64].veinsmobility acceleration ETV
vector 324 RSUExampleScenario.node[64].veinsmobility co2emission ETV
vector 325 RSUExampleScenario.node[65].veinsmobility posx ETV
vector 326 RSUExampleScenario.node[65].veinsmobility posy ETV
vector 327 RSUExampleScenario.node[65].veinsmobility speed ETV
vector 328 RSUExampleScenario.node[65].veinsmobility acceleration ETV
vector 329 RSUExampleScenario.node[65].veinsmobility co2emission ETV
vector 330 RSUExampleScenario.node[66].veinsmobility posx ETV
vector 331 RSUExampleScenario.node[66].veinsmobility posy ETV
vector 332 RSUExampleScenario.node[66].veinsmobility speed ETV
vector 333 RSUExampleScenario.node[66].veinsmobility acceleration ETV
vector 334 RSUExampleScenario.node[66].veinsmobility co2emission ETV
vector 335 RSUExampleScenario.node[67].veinsmobility posx ETV
vector 336 RSUExampleScenario.node[67].veinsmobility posy ETV
vector 337 RSUExampleScenario.node[67].veinsmobility speed ETV
0	2	1	2413.1848838286
0	3	2	2412.0960313088
0	4	3	2410.2562460165
0	5	4	2407.6655279518
0	6	5	2405.1429824624
0	7	6	2402.0799229953
0	8	7	2398.454834268
0	9	8	2394.2677162808
0	10	9	2389.5185690335
0	11	10	2384.2073925261
0	12	11	2378.3341867587
0	13	12	2371.8989517313
0	14	13	2364.9016874438
0	15	14	2357.3423938963
0	16	15	2349.2210710888
0	17	16	2340.8487315001
0	18	17	2334.6502682895
0	19	18	2337.2758688233
0	20	19	2348.5116166983
0	21	20	2359.446862125
0	22	21	2373.4584957286
0	23	22	2388.0648287894
0	24	23	2402.7215713458
0	25	24	2415.0869107392
0	26	25	2423.0278172726
0	27	26	2429.6289784613
0	28	27	2431.4709079027
0	29	28	2432.7427805181
0	30	29	2434.1348313639
0	31	30	2435.6470604402
0	32	31	2437.2794677468
0	33	32	2438.5173565792
0	34	33	2439.267700485
0	35	34	2440.2298702648
0	36	35	2441.2500607305
0	37	36	2442.3282718821
0	38	37	2443.4645037195
0	39	38	2444.6587562427
0	40	39	2445.9110294516
0	41	40	2447.1925758548
0	42	41	2448.4741222581
0	43	42	2449.7556686613
0	44	43	2450.2446158226
0	45	44	2448.8333940856
0	46	45	2447.4221723486
0	47	46	2446.0109506117
0	48	47	2444.5997288746
0	49	48	2443.1885071377
0	50	49	2441.7772854007
0	51	50	2440.3867506369
0	52	51	2439.1934974284
0	53	52	2438.2791713284
0	54	53	2431.5613951089
0	55	54	2415.606684119
0	56	55	2395.6750772689
0	57	56	2374.7767959567
0	58	57	2353.0789706397
0	59	58	2330.5816013179
0	60	59	2307.3000792132
0	61	60	2283.7603043951
0	62	61	2260.220529577
0	63	62	2236.7803224947
0	64	63	2213.5722304164
0	65	64	2191.3220948366
0	66	65	2172.4238449149
0	67	66	2158.5821053413
0	68	67	2148.6183084279
0	69	68	2142.2584128933
0	70	69	2136.6725857625
0	71	70	2131.2936937904
0	72	71	2125.3678246457
0	73	72	2118.894978328
0	74	73	2111.8751548374
0	76	74	2106.3014022476
0	77	75	2103.8043962553
0	78	76	2103.6552600442
0	79	77	2103.6552600442
0	80	78	2103.6552600442
0	81	79	2103.6552600442
0	82	80	2103.6552600442
0	83	81	2103.6552600442
0	84	82	2103.6552600442
0	85	83	2103.6552600442
0	86	84	2103.6552600442
0	87	85	2103.6552600442
0	211	86	2103.6552600442
0	212	87	2103.6552600442
0	2080	88	2103.6552600442
0	2081	89	2103.6552600442
0	5668	90	2103.6552600442
0	5669	91	2103.6552600442
0	6640	92	2103.6552600442
0	6641	93	2103.6552600442
0	6934	94	2103.6552600442
0	6935	95	2103.6552600442
0	6936	96	2103.6552600442
0	6937	97	2103.6552600442
0	6938	98	2103.6552600442
0	6939	99	2103.6552600442
0	6940	100	2103.6552600442
0	6942	101	2103.6552600442
0	6943	102	2103.6552600442
0	6944	103	2103.6552600442
0	6945	104	2103.6552600442
0	6946	105	2103.6552600442
0	6947	106	2103.6552600442
0	6948	107	2103.6552600442
0	6949	108	2103.6552600442
0	6950	109	2103.6552600442
0	6951	110	2103.6552600442
0	6952	111	2103.6552600442
0	6953	112	2103.6552600442
0	6954	113	2103.6552600442
0	6955	114	2103.6552600442
0	6956	115	2103.6552600442
0	6957	116	2103.6552600442
0	6958	117	2103.6552600442
0	6959	118	2103.6552600442
0	6960	119	2103.6552600442
0	6961	120	2103.6552600442
0	6962	121	2103.6552600442
0	6963	122	2103.6552600442
0	6964	123	2103.6552600442
0	6966	124	2103.3544225991
0	6967	125	2102.506607981
0	6968	126	2101.1118161903
0	6969	127	2099.1700472265
0	6970	128	2096.6813010899
0	6971	129	2093.6455777804
0	6972	130	2090.062877298
0	6974	131	2085.9331996428
0	6975	132	2081.2565448147
0	6976	133	2076.0329128136
0	6977	134	2070.2623036397
0	6978	135	2063.9447172929
0	6979	136	2057.0801537732
0	6980	137	2049.6686130808
0	6981	138	2041.3995435681
0	6982	139	2032.4787285554
0	6983	140	2022.9842276896
0	6984	141	2012.9160409708
0	6985	142	2002.2741683993
0	6986	143	1991.0586099747
0	6987	144	1979.2693656973
0	6988	145	1966.906435567
0	6989	146	1953.9698195837
0	6990	147	1940.4595177474
0	6991	148	1926.6691554888
0	6992	149	1912.3922044156
0	6993	150	1897.5564685644
0	6995	151	1882.1619479356
0	6996	152	1866.2086425289
0	6997	153	1849.6965523442
0	6998	154	1832.4727251234
0	6999	155	1814.1696690234
0	7000	156	1795.4948707679
0	7001	157	1776.3236946377
0	7002	158	1756.5810974606
0	7003	159	1736.2670792362
0	7004	160	1715.3978111804
0	7006	161	1694.3646595683
0	7007	162	1673.3315079563
0	7008	163	1652.2983563441
0	7009	164	1631.7660267088
0	7010	165	1611.848765297
0	7011	166	1595.2935447776
0	7012	167	1578.7383242581
0	7013	168	1562.1831037387
0	7014	169	1544.6969051274
0	7015	170	1526.9049326275
0	7016	171	1509.1129601275
0	7017	172	1490.4156665215
0	7018	173	1471.1828289715
0	7019	174	1453.2970870225
0	7020	175	1437.6131511464
0	7021	176	1421.6648351792
0	7022	177	1405.716519212
0	7023	178	1389.1839514693
0	7024	179	1372.3993402326
0	7025	180	1355.6147289958
0	7027	181	1338.1081934216
0	7028	182	1320.8012610264
0	7029	183	1303.3799589539
0	7030	184	1285.9891067625
0	7031	185	1268.5222220913
0	7032	186	1251.0045588241
0	7033	187	1233.4383295787
0	7034	188	1215.8721003332
0	7035	189	1198.3058710878
0	7036	190	1180.7396418423
0	7038	191	1163.1734125969
0	7039	192	1145.6071833514
0	7040	193	1128.040954106
0	7041	194	1110.4535081978
0	7042	195	1092.8316963323
0	7043	196	1075.214326661
0	7044	197	1057.5977502876
0	7045	198	1039.9811739143
0	7046	199	1022.3645975409
0	7047	200	1004.7480211676
1	2	1	1579.0719159106
1	3	2	1579.4717368735
1	4	3	1580.1472964305
1	5	4	1581.0985945836
1	6	5	1583.5983630298
1	7	6	1586.7008202868
1	8	7	1590.3725357549
1	9	8	1594.6135094361
1	10	9	1599.4237413304
1	11	10	1604.8032314358
1	12	11	1610.7519797534
1	13	12	1617.269986284
1	14	13	1624.3572510257
1	15	14	1632.0137739806
1	16	15	1640.2395551475
1	17	16	1649.30796629
1	18	17	1660.5138320187
1	19	18	1673.2446363354
1	20	19	1682.6284623845
1	21	20	1692.4901406076
1	22	21	1695.8357101185
1	23	22	1697.647019445
1	24	23	1699.0329123298
1	25	24	1700.2021377441
1	26	25	1700.9208312901
1	27	26	1702.2010871796
1	28	27	1709.5019914107
1	29	28	1717.8715599356
1	30	29	1727.031962323
1	31	30	1736.9831985747
1	32	31	1747.7252686908
1	33	32	1759.3239347404
1	34	33	1771.7734165723
1	35	34	1785.0051484006
1	36	35	1799.0347790737
1	37	36	1813.8623085907
1	38	37	1829.4877369525
1	39	38	1845.9110641573
1	40	39	1863.1322902068
1	41	40	1880.7560804021
1	42	41	1898.3798705973
1	43	42	1916.0036607925
1	44	43	1933.6245342065
1	45	44	1951.2384149618
1	46	45	1968.8522957163
1	47	46	1986.4661764707
1	48	47	2004.0800572252
1	49	48	2021.6939379796
1	50	49	2039.3078187341
1	51	50	2056.9232282285
1	52	51	2074.5532165673
1	53	52	2092.2991323005
1	54	53	2109.1636026921
1	55	54	2119.5044306051
1	56	55	2120.5101443212
1	57	56	2119.8042869652
1	58	57	2119.071424325
1	59	58	2118.3115564017
1	60	59	2117.5252030464
1	61	60	2116.7301269844
1	62	61	2115.9350509215
1	63	62	2114.0025561126
1	64	63	2110.2264389936
1	65	64	2102.6802289896
1	66	65	2094.8220081776
1	67	66	2086.6735946443
1	68	67	2080.8080647243
1	69	68	2077.0640946431
1	70	69	2072.7933593215
1	71	70	2067.05138613
1	72	71	2060.7255141949
1	73	72	2053.8157435171
1	74	73	2046.3220740957
1	76	74	2040.3720869776
1	77	75	2037.7065302897
1	78	76	2037.5473272176
1	79	77	2037.5473272176
1	80	78	2037.5473272176
1	81	79	2037.5473272176
1	82	80	2037.5473272176
1	83	81	2037.5473272176
1	84	82	2037.5473272176
1	85	83	2037.5473272176
1	86	84	2037.5473272176
1	87	85	2037.5473272176
1	211	86	2037.5473272176
1	212	87	2037.5473272176
1	2080	88	2037.5473272176
1	2081	89	2037.5473272176
1	5668	90	2037.5473272176
1	5669	91	2037.5473272176
1	6640	92	2037.5473272176
1	6641	93	2037.5473272176
1	6934	94	2037.5473272176
1	6935	95	2037.5473272176
1	6936	96	2037.5473272176
1	6937	97	2037.5473272176
1	6938	98	2037.5473272176
1	6939	99	2037.5473272176
1	6940	100	2037.5473272176
1	6942	101	2037.5473272176
1	6943	102	2037.5473272176
1	6944	103	2037.5473272176
1	6945	104	2037.5473272176
1	6946	105	2037.5473272176
1	6947	106	2037.5473272176
1	6948	107	2037.5473272176
1	6949	108	2037.5473272176
1	6950	109	2037.5473272176
1	6951	110	2037.5473272176
1	6952	111	2037.5473272176
1	6953	112	2037.5473272176
1	6954	113	2037.5473272176
1	6955	114	2037.5473272176
1	6956	115	2037.5473272176
1	6957	116	2037.5473272176
1	6958	117	2037.5473272176
1	6959	118	2037.5473272176
1	6960	119	2037.5473272176
1	6961	120	2037.5473272176
1	6962	121	2037.5473272176
1	6963	122	2037.5473272176
1	6964	123	2037.5473272176
1	6966	124	2037.2261829088
1	6967	125	2036.3211398572
1	6968	126	2034.832198061
1	6969	127	2032.7593575222
1	6970	128	2030.1026182408
1	6971	129	2026.8619802147
1	6972	130	2023.037443446
1	6974	131	2018.6290079337
1	6975	132	2013.6366736786
1	6976	133	2008.06044068
1	6977	134	2001.9003089378
1	6978	135	1995.1562784519
1	6979	136	1987.8283492234
1	6980	137	1979.9165212512
1	6981	138	1971.7256564945
1	6982	139	1963.0537418369
1	6983	140	1953.8241477804
1	6984	141	1944.0368743241
1	6985	142	1933.6919214688
1	6986	143	1922.7892892146
1	6987	144	1911.3289775616
1	6988	145	1899.3109865086
1	6989	146	1886.7353160577
1	6990	147	1873.601966206
1	6991	148	1859.6167446896
1	6992	149	1844.9865785977
1	6993	150	1829.7838032646
1	6995	151	1814.0084186913
1	6996	152	1797.6604248779
1	6997	153	1780.7398218242
1	6998	154	1763.4016486248
1	6999	155	1746.0184110757
1	7000	156	1727.8682020744
1	7001	157	1709.0802093521
1	7002	158	1689.7322168471
1	7003	159	1669.8242245587
1	7004	160	1649.3720804807
1	7006	161	1628.759328465
1	7007	162	1608.1465764493
1	7008	163	1587.5338244336
1	7009	164	1567.4118842278
1	7010	165	1552.426811032
1	7011	166	1535.7151358556
1	7012	167	1519.0034606792
1	7013	168	1502.2917855037
1	7014	169	1486.5762618911
1	7015	170	1471.1879179841
1	7016	171	1455.7995740771
1	7017	172	1441.5697525283
1	7018	173	1428.0252564717
1	7019	174	1415.4294363977
1	7020	175	1406.5540564451
1	7021	176	1399.0350682633
1	7022	177	1391.5160800815
1	7023	178	1385.4774061581
1	7024	179	1380.0773329092
1	7025	180	1374.6772596594
1	7027	181	1372.3896830566
1	7028	182	1369.3522313079
1	7029	183	1366.4120852361
1	7030	184	1363.2934490275
1	7031	185	1360.6139192488
1	7032	186	1358.3747598026
1	7033	187	1356.5233250111
1	7034	188	1354.6718902197
1	7035	189	1352.8204554282
1	7036	190	1350.9690206377
1	7038	191	1349.1175858462
1	7039	192	1347.2661510548
1	7040	193	1345.4147162633
1	7041	194	1343.8068868285
1	7042	195	1342.5936402474
1	7043	196	1341.2451929208
1	7044	197	1339.7331348844
1	7045	198	1338.221076848
1	7046	199	1336.7090188116
1	7047	200	1335.1969607752
2	3	2	1.52
2	4	3	2.32
2	5	4	3.12
2	6	5	3.92
2	7	6	4.72
2	8	7	5.52
2	9	8	6.32
2	10	9	7.12
2	11	10	7.92
2	12	11	8.72
2	13	12	9.52
2	14	13	10.32
2	15	14	11.12
2	16	15	11.92
2	17	16	12.72
2	18	17	13.52
2	19	18	14.32
2	20	19	14.7234
2	21	20	14.7234
2	22	21	14.7234
2	23	22	14.7234
2	24	23	14.7234
2	25	24	10.396575757576
2	26	25	6.4265757575757
2	27	26	7.2265757575757
2	28	27	8.0265757575757
2	29	28	8.8265757575757
2	30	29	9.6265757575757
2	31	30	10.426575757576
2	32	31	11.226575757576
2	33	32	12.026575757576
2	34	33	12.826575757576
2	35	34	13.626575757576
2	36	35	14.426575757576
2	37	36	15.226575757576
2	38	37	16.026575757576
2	39	38	16.826575757576
2	40	39	17.626575757576
2	41	40	17.6702
2	42	41	17.6702
2	43	42	17.6702
2	44	43	17.6702
2	45	44	17.6702
2	46	45	17.6702
2	47	46	17.6702
2	48	47	17.6702
2	49	48	17.6702
2	50	49	17.6702
2	51	50	17.6702
2	52	51	17.6702
2	53	52	18.0702
2	54	53	18.8702
2	55	54	19.6702
2	56	55	20.4702
2	57	56	21.2702
2	58	57	22.0702
2	59	58	22.8702
2	60	59	23.5532
2	61	60	23.5532
2	62	61	23.5532
2	63	62	23.5532
2	64	63	23.5532
2	65	64	23.037080731847
2	66	65	18.537080731847
2	67	66	14.037080731847
2	68	67	9.5370807318468
2	69	68	6.6270807318468
2	70	69	7.4270807318468
2	71	70	8.2270807318468
2	72	71	9.0270807318468
2	73	72	9.8270807318468
2	74	73	10.627080731847
2	76	74	6.1270807318468
2	77	75	1.6270807318468
2	78	76	0
2	79	77	0
2	80	78	0
2	81	79	0
2	82	80	0
2	83	81	0
2	84	82	0
2	85	83	0
2	86	84	0
2	87	85	0
2	211	86	0
2	212	87	0
2	2080	88	0
2	2081	89	0
2	5668	90	0
2	5669	91	0
2	6640	92	0
2	6641	93	0
2	6934	94	0
2	6935	95	0
2	6936	96	0
2	6937	97	0
2	6938	98	0
2	6939	99	0
2	6940	100	0
2	6942	101	0
2	6943	102	0
2	6944	103	0
2	6945	104	0
2	6946	105	0
2	6947	106	0
2	6948	107	0
2	6949	108	0
2	6950	109	0
2	6951	110	0
2	6952	111	0
2	6953	112	0
2	6954	113	0
2	6955	114	0
2	6956	115	0
2	6957	116	0
2	6958	117	0
2	6959	118	0
2	6960	119	0
2	6961	120	0
2	6962	121	0
2	6963	122	0
2	6964	123	0
2	6966	124	0.8
2	6967	125	1.6
2	6968	126	2.4
2	6969	127	3.2
2	6970	128	4
2	6971	129	4.8
2	6972	130	5.6
2	6974	131	6.4
2	6975	132	7.2
2	6976	133	8
2	6977	134	8.8
2	6978	135	9.6
2	6979	136	10.4
2	6980	137	11.2
2	6981	138	12
2	6982	139	12.8
2	6983	140	13.6
2	6984	141	14.4
2	6985	142	15.2
2	6986	143	16
2	6987	144	16.8
2	6988	145	17.6
2	6989	146	18.4
2	6990	147	19.2
2	6991	148	20
2	6992	149	20.8
2	6993	150	21.6
2	6995	151	22.4
2	6996	152	23.2
2	6997	153	24
2	6998	154	24.8
2	6999	155	25.6
2	7000	156	26.4
2	7001	157	27.2
2	7002	158	28
2	7003	159	28.8
2	7004	160	29.4468
2	7006	161	29.4468
2	7007	162	29.4468
2	7008	163	29.4468
2	7009	164	27.1532
2	7010	165	23.5532
2	7011	166	23.5532
2	7012	167	23.5532
2	7013	168	23.5532
2	7014	169	23.5532
2	7015	170	23.5532
2	7016	171	23.5532
2	7017	172	23.5532
2	7018	173	23.5532
2	7019	174	19.9202
2	7020	175	17.6702
2	7021	176	17.6702
2	7022	177	17.6702
2	7023	178	17.6702
2	7024	179	17.6702
2	7025	180	17.6702
2	7027	181	17.6702
2	7028	182	17.6702
2	7029	183	17.6702
2	7030	184	17.6702
2	7031	185	17.6702
2	7032	186	17.6702
2	7033	187	17.6702
2	7034	188	17.6702
2	7035	189	17.6702
2	7036	190	17.6702
2	7038	191	17.6702
2	7039	192	17.6702
2	7040	193	17.6702
2	7041	194	17.6702
2	7042	195	17.6702
2	7043	196	17.6702
2	7044	197	17.6702
2	7045	198	17.6702
2	7046	199	17.6702
2	7047	200	17.6702
3	4	3	0.8
3	5	4	0.8
3	6	5	0.8
3	7	6	0.8
3	8	7	0.8
3	9	8	0.8
3	10	9	0.8
3	11	10	0.8
3	12	11	0.8
3	13	12	0.8
3	14	13	0.8
3	15	14	0.8
3	16	15	0.8
3	17	16	0.8
3	18	17	0.8
3	19	18	0.8
3	20	19	0.40339999999999
3	21	20	0
3	22	21	0
3	23	22	0
3	24	23	0
3	25	24	-4.3268242424243
3	26	25	-3.97
3	27	26	0.8
3	28	27	0.8
3	29	28	0.8
3	30	29	0.8
3	31	30	0.8
3	32	31	0.8
3	33	32	0.8
3	34	33	0.8
3	35	34	0.8
3	36	35	0.8
3	37	36	0.8
3	38	37	0.8
3	39	38	0.79999999999998
3	40	39	0.79999999999998
3	41	40	0.043624242424293
3	42	41	0
3	43	42	0
3	44	43	0
3	45	44	0
3	46	45	0
3	47	46	0
3	48	47	0
3	49	48	0
3	50	49	0
3	51	50	0
3	52	51	0
3	53	52	0.39999999999999
3	54	53	0.79999999999998
3	55	54	0.79999999999998
3	56	55	0.79999999999998
3	57	56	0.79999999999998
3	58	57	0.79999999999998
3	59	58	0.79999999999998
3	60	59	0.68300000000011
3	61	60	0
3	62	61	0
3	63	62	0
3	64	63	0
3	65	64	-0.5161192681532
3	66	65	-4.5
3	67	66	-4.5
3	68	67	-4.5
3	69	68	-2.91
3	70	69	0.8
3	71	70	0.8
3	72	71	0.8
3	73	72	0.8
3	74	73	0.8
3	76	74	-4.5
3	77	75	-4.5
3	78	76	-1.6270807318468
3	79	77	0
3	80	78	0
3	81	79	0
3	82	80	0
3	83	81	0
3	84	82	0
3	85	83	0
3	86	84	0
3	87	85	0
3	211	86	0
3	212	87	0
3	2080	88	0
3	2081	89	0
3	5668	90	0
3	5669	91	0
3	6640	92	0
3	6641	93	0
3	6934	94	0
3	6935	95	0
3	6936	96	0
3	6937	97	0
3	6938	98	0
3	6939	99	0
3	6940	100	0
3	6942	101	0
3	6943	102	0
3	6944	103	0
3	6945	104	0
3	6946	105	0
3	6947	106	0
3	6948	107	0
3	6949	108	0
3	6950	109	0
3	6951	110	0
3	6952	111	0
3	6953	112	0
3	6954	113	0
3	6955	114	0
3	6956	115	0
3	6957	116	0
3	6958	117	0
3	6959	118	0
3	6960	119	0
3	6961	120	0
3	6962	121	0
3	6963	122	0
3	6964	123	0
3	6966	124	0.8
3	6967	125	0.8
3	6968	126	0.8
3	6969	127	0.8
3	6970	128	0.8
3	6971	129	0.8
3	6972	130	0.8
3	6974	131	0.8
3	6975	132	0.8
3	6976	133	0.8
3	6977	134	0.8
3	6978	135	0.8
3	6979	136	0.8
3	6980	137	0.8
3	6981	138	0.8
3	6982	139	0.8
3	6983	140	0.8
3	6984	141	0.8
3	6985	142	0.8
3	6986	143	0.8
3	6987	144	0.79999999999998
3	6988	145	0.79999999999998
3	6989	146	0.79999999999998
3	6990	147	0.79999999999998
3	6991	148	0.79999999999998
3	6992	149	0.79999999999998
3	6993	150	0.79999999999998
3	6995	151	0.79999999999998
3	6996	152	0.79999999999998
3	6997	153	0.79999999999998
3	6998	154	0.79999999999998
3	6999	155	0.79999999999998
3	7000	156	0.79999999999998
3	7001	157	0.79999999999998
3	7002	158	0.79999999999998
3	7003	159	0.79999999999998
3	7004	160	0.64680000000027
3	7006	161	0
3	7007	162	0
3	7008	163	0
3	7009	164	-2.2936
3	7010	165	-3.6
3	7011	166	0
3	7012	167	0
3	7013	168	0
3	7014	169	0
3	7015	170	0
3	7016	171	0
3	7017	172	0
3	7018	173	0
3	7019	174	-3.633
3	7020	175	-2.25
3	7021	176	0
3	7022	177	0
3	7023	178	0
3	7024	179	0
3	7025	180	0
3	7027	181	0
3	7028	182	0
3	7029	183	0
3	7030	184	0
3	7031	185	0
3	7032	186	0
3	7033	187	0
3	7034	188	0
3	7035	189	0
3	7036	190	0
3	7038	191	0
3	7039	192	0
3	7040	193	0
3	7041	194	0
3	7042	195	0
3	7043	196	0
3	7044	197	0
3	7045	198	0
3	7046	199	0
3	7047	200	0
4	4	3	1.6703663505942
4	5	4	1.8648504692648
4	6	5	2.0604413608208
4	7	6	2.2574228131817
4	8	7	2.4560786142668
4	9	8	2.6566925519956
4	10	9	2.8595484142872
4	11	10	3.0649299890612
4	12	11	3.2731210642368
4	13	12	3.4844054277335
4	14	13	3.6990668674705
4	15	14	3.9173891713673
4	16	15	4.1396561273432
4	17	16	4.3661515233175
4	18	17	4.5971591472097
4	19	18	4.832962786939
4	20	19	3.5465041419702
4	21	20	2.1151040280103
4	22	21	2.1151040280103
4	23	22	2.1151040280103
4	24	23	2.1151040280103
4	25	24	0.973
4	26	25	0.973
4	27	26	2.8867572714455
4	28	27	3.0924967422026
4	29	28	3.3010835195019
4	30	29	3.512801391263
4	31	30	3.727934145405
4	32	31	3.9467655698474
4	33	32	4.1695794525095
4	34	33	4.3966595813107
4	35	34	4.6282897441704
4	36	35	4.8647537290078
4	37	36	5.1063353237425
4	38	37	5.3533183162936
4	39	38	5.6059864945806
4	40	39	5.8646236465228
4	41	40	2.6578644865677
4	42	41	2.4720898562427
4	43	42	2.4720898562427
4	44	43	2.4720898562427
4	45	44	2.4720898562427
4	46	45	2.4720898562427
4	47	46	2.4720898562427
4	48	47	2.4720898562427
4	49	48	2.4720898562427
4	50	49	2.4720898562427
4	51	50	2.4720898562427
4	52	51	2.4720898562427
4	53	52	4.2687553888958
4	54	53	6.2792022456237
4	55	54	6.5543757408466
4	56	55	6.8365269424837
4	57	56	7.1259396384543
4	58	57	7.422897616678
4	59	58	7.727684665074
4	60	59	7.3301759426675
4	61	60	3.4532485630669
4	62	61	3.4532485630669
4	63	62	3.4532485630669
4	64	63	3.4532485630669
4	65	64	0.48526622696984
4	66	65	0.973
4	67	66	0.973
4	68	67	0.973
4	69	68	0.973
4	70	69	2.938070161955
4	71	70	3.1444966067745
4	72	71	3.353841484248
4	73	72	3.5663885822951
4	74	73	3.782421688835
4	76	74	0.973
4	77	75	0.973
4	78	76	0.973
4	79	77	0.973
4	80	78	0.973
4	81	79	0.973
4	82	80	0.973
4	83	81	0.973
4	84	82	0.973
4	85	83	0.973
4	86	84	0.973
4	87	85	0.973
4	211	86	0.973
4	212	87	0.973
4	2080	88	0.973
4	2081	89	0.973
4	5668	90	0.973
4	5669	91	0.973
4	6640	92	0.973
4	6641	93	0.973
4	6934	94	0.973
4	6935	95	0.973
4	6936	96	0.973
4	6937	97	0.973
4	6938	98	0.973
4	6939	99	0.973
4	6940	100	0.973
4	6942	101	0.973
4	6943	102	0.973
4	6944	103	0.973
4	6945	104	0.973
4	6946	105	0.973
4	6947	106	0.973
4	6948	107	0.973
4	6949	108	0.973
4	6950	109	0.973
4	6951	110	0.973
4	6952	111	0.973
4	6953	112	0.973
4	6954	113	0.973
4	6955	114	0.973
4	6956	115	0.973
4	6957	116	0.973
4	6958	117	0.973
4	6959	118	0.973
4	6960	119	0.973
4	6961	120	0.973
4	6962	121	0.973
4	6963	122	0.973
4	6964	123	0.973
4	6966	124	1.3028792979866
4	6967	125	1.4960423838925
4	6968	126	1.6897730456371
4	6969	127	1.8843550711398
4	6970	128	2.08007224832
4	6971	129	2.277208365097
4	6972	130	2.4760472093901
4	6974	131	2.6768725691187
4	6975	132	2.8799682322022
4	6976	133	3.08561798656
4	6977	134	3.2941056201114
4	6978	135	3.5057149207757
4	6979	136	3.7207296764723
4	6980	137	3.9394336751206
4	6981	138	4.16211070464
4	6982	139	4.3890445529498
4	6983	140	4.6205190079693
4	6984	141	4.8568178576179
4	6985	142	5.098224889815
4	6986	143	5.34502389248
4	6987	144	5.5974986535321
4	6988	145	5.8559329608908
4	6989	146	6.1206106024754
4	6990	147	6.3918153662053
4	6991	148	6.6698310399999
4	6992	149	6.9549414117784
4	6993	150	7.2474302694604
4	6995	151	7.547581400965
4	6996	152	7.8556785942117
4	6997	153	8.1720056371198
4	6998	154	8.4968463176088
4	6999	155	8.8304844235979
4	7000	156	9.1732037430065
4	7001	157	9.525288063754
4	7002	158	9.8870211737598
4	7003	159	10.258686860943
4	7004	160	9.479423175924
4	7006	161	4.8892913280821
4	7007	162	4.8892913280821
4	7008	163	4.8892913280821
4	7009	164	0.973
4	7010	165	0.973
4	7011	166	3.4532485630669
4	7012	167	3.4532485630669
4	7013	168	3.4532485630669
4	7014	169	3.4532485630669
4	7015	170	3.4532485630669
4	7016	171	3.4532485630669
4	7017	172	3.4532485630669
4	7018	173	3.4532485630669
4	7019	174	0.973
4	7020	175	0.973
4	7021	176	2.4720898562427
4	7022	177	2.4720898562427
4	7023	178	2.4720898562427
4	7024	179	2.4720898562427
4	7025	180	2.4720898562427
4	7027	181	2.4720898562427
4	7028	182	2.4720898562427
4	7029	183	2.4720898562427
4	7030	184	2.4720898562427
4	7031	185	2.4720898562427
4	7032	186	2.4720898562427
4	7033	187	2.4720898562427
4	7034	188	2.4720898562427
4	7035	189	2.4720898562427
4	7036	190	2.4720898562427
4	7038	191	2.4720898562427
4	7039	192	2.4720898562427
4	7040	193	2.4720898562427
4	7041	194	2.4720898562427
4	7042	195	2.4720898562427
4	7043	196	2.4720898562427
4	7044	197	2.4720898562427
4	7045	198	2.4720898562427
4	7046	199	2.4720898562427
4	7047	200	2.4720898562427
5	5	4	2415.6405352422
5	6	5	2413.6408845274
5	7	6	2410.4255104376
5	8	7	2406.6627312984
5	9	8	2403.0142411315
5	10	9	2398.7809104566
5	11	10	2393.9840856602
5	12	11	2388.6048275396
5	13	12	2382.671884948
5	14	13	2376.1805456711
5	15	14	2369.1242622212
5	16	15	2361.5004389605
5	17	16	2353.3151484928
5	18	17	2344.5580444803
5	19	18	2336.2061376711
5	20	19	2334.091823858
5	21	20	2343.7141835071
5	22	21	2354.1330158885
5	23	22	2365.6207168298
5	24	23	2379.4004655979
5	25	24	2392.6224865954
5	26	25	2402.8014659487
5	27	26	2411.4225709997
5	28	27	2419.8901883441
5	29	28	2426.8361362902
5	30	29	2431.1703801221
5	31	30	2432.7418657248
5	32	31	2434.3947713641
5	33	32	2436.132422655
5	34	33	2437.8993615282
5	35	34	2438.8603142331
5	36	35	2439.765565955
5	37	36	2440.7754935109
5	38	37	2441.784940309
5	39	38	2442.7968009575
5	40	39	2443.8087077338
5	41	40	2444.8205896324
5	42	41	2445.8316865016
5	43	42	2446.8423120646
5	44	43	2447.8530954485
5	45	44	2448.8621253817
5	46	45	2449.8721368375
5	47	46	2450.4143143839
5	48	47	2449.3006258492
5	49	48	2448.1867515439
5	50	49	2447.0732979089
5	51	50	2445.9588585281
5	52	51	2444.8458721462
5	53	52	2443.733869063
5	54	53	2442.6207576876
5	55	54	2441.5072063424
5	56	55	2440.4107596191
5	57	56	2439.4692423537
5	58	57	2438.6101568637
5	59	58	2437.2358597986
5	60	59	2430.6629955121
5	61	60	2419.1860079155
5	62	61	2405.7637533658
5	63	62	2391.8232002847
5	64	63	2377.8935143194
5	65	64	2363.9541636746
5	66	65	2350.0365078959
5	67	66	2336.1073144627
5	68	67	2322.1842025552
5	69	68	2308.257954278
5	70	69	2294.322572595
5	71	70	2280.4033353771
5	72	71	2266.4661577437
5	73	72	2252.5554304608
5	74	73	2238.7198634229
5	76	74	2224.9257743694
5	77	75	2211.3409193547
5	78	76	2198.1463395621
5	79	77	2184.9565737982
5	80	78	2172.3360521937
5	81	79	2160.3330808416
5	82	80	2149.8468151913
5	83	81	2143.1317628988
5	84	82	2136.9355377054
5	85	83	2130.3035176109
5	86	84	2120.371243961
5	87	85	2112.7179010872
5	211	86	2103.7861862807
5	212	87	2094.255702807
5	2080	88	2084.7314516022
5	2081	89	2075.193994694
5	5668	90	2065.674781516
5	5669	91	2056.1492215665
5	6640	92	2049.0028775575
5	6641	93	2039.0598367919
5	6934	94	2029.0820945174
5	6935	95	2019.0828018116
5	6936	96	2009.08199423
5	6937	97	1999.0978883428
5	6938	98	1989.0975823588
5	6939	99	1979.1072282322
5	6940	100	1969.108247805
5	6942	101	1959.1185406714
5	6943	102	1949.1417060635
5	6944	103	1939.1414151564
5	6945	104	1929.3873475655
5	6946	105	1919.668935903
5	6947	106	1909.9411015541
5	6948	107	1900.2122659319
5	6949	108	1890.473737494
5	6950	109	1880.7435433432
5	6951	110	1871.015842567
5	6952	111	1861.2813104641
5	6953	112	1851.5485724595
5	6954	113	1841.8190094932
5	6955	114	1831.9042374899
5	6956	115	1821.8077709377
5	6957	116	1811.698471342
5	6958	117	1801.7068570156
5	6959	118	1791.7637172685
5	6960	119	1781.8257437015
5	6961	120	1771.8674790943
5	6962	121	1761.9281983711
5	6963	122	1751.9853562168
5	6964	123	1742.0316513017
5	6966	124	1732.0621425239
5	6967	125	1722.0856059486
5	6968	126	1712.140442482
5	6969	127	1702.1817360318
5	6970	128	1692.2343607204
5	6971	129	1682.2818457239
5	6972	130	1672.3185995243
5	6974	131	1662.3759963576
5	6975	132	1652.4362897339
5	6976	133	1642.4663788661
5	6977	134	1632.5074305555
5	6978	135	1622.5737835339
5	6979	136	1612.77417467
5	6980	137	1602.9495381261
5	6981	138	1593.1335361007
5	6982	139	1583.3064114477
5	6983	140	1573.4796690849
5	6984	141	1563.6570656536
5	6985	142	1553.3393891775
5	6986	143	1542.7909605346
5	6987	144	1532.2403475794
5	6988	145	1521.688870267
5	6989	146	1511.1433882772
5	6990	147	1500.2797207029
5	6991	148	1488.8582441518
5	6992	149	1477.4390699537
5	6993	150	1466.0244199975
5	6995	151	1454.6298235201
5	6996	152	1442.6424498133
5	6997	153	1430.0171098402
5	6998	154	1417.3823624935
5	6999	155	1404.7432003639
5	7000	156	1391.593391072
5	7001	157	1378.285474551
5	7002	158	1365.0170278975
5	7003	159	1351.5089060771
5	7004	160	1337.7458038849
5	7006	161	1324.1300488751
5	7007	162	1310.3997253136
5	7008	163	1296.66888198
5	7009	164	1282.9391529486
5	7010	165	1269.1677802525
5	7011	166	1255.380994668
5	7012	167	1241.526712377
5	7013	168	1227.6610154527
5	7014	169	1213.8148764216
5	7015	170	1199.9520517571
5	7016	171	1186.0809475045
5	7017	172	1172.2201851965
5	7018	173	1158.3692694857
5	7019	174	1144.5197620657
5	7020	175	1130.6639427418
5	7021	176	1116.7971369342
5	7022	177	1102.8894553117
5	7023	178	1088.9624882495
5	7024	179	1075.0835778688
5	7025	180	1061.2087550535
5	7027	181	1047.3387052541
5	7028	182	1033.4631431903
5	7029	183	1019.5771742174
5	7030	184	1005.7075217016
5	7031	185	991.83174361952
5	7032	186	977.95986224024
5	7033	187	964.08867839549
5	7034	188	950.22150484647
5	7035	189	936.34692059539
5	7036	190	922.48110172618
5	7038	191	908.58844404283
5	7039	192	894.71745002142
5	7040	193	880.84475790267
5	7041	194	866.95918133319
5	7042	195	853.08349062235
5	7043	196	839.189548822
5	7044	197	825.28794451873
5	7045	198	811.3928545987
5	7046	199	797.54568220954
5	7047	200	783.76344203367
6	5	4	1578.170213528
6	6	5	1578.904474834
6	7	6	1580.085143419
6	8	7	1582.0590668274
6	9	8	1585.7544847308
6	10	9	1590.0422654981
6	11	10	1594.9007881805
6	12	11	1600.3492355812
6	13	12	1606.358489072
6	14	13	1612.9333214778
6	15	14	1620.0803645011
6	16	15	1627.8022471648
6	17	16	1636.0928187594
6	18	17	1644.9625586979
6	19	18	1655.251208974
6	20	19	1668.7041398995
6	21	20	1678.4439626262
6	22	21	1687.6979809748
6	23	22	1694.6642097076
6	24	23	1696.6538067451
6	25	24	1698.0779764261
6	26	25	1699.0404668981
6	27	26	1699.8556499518
6	28	27	1700.6563197169
6	29	28	1701.1620726017
6	30	29	1707.5243658042
6	31	30	1717.8655401301
6	32	31	1728.742499697
6	33	32	1740.1771287424
6	34	33	1752.2308578258
6	35	34	1765.0625410154
6	36	35	1778.6200485528
6	37	36	1792.5085439794
6	38	37	1806.3904280355
6	39	38	1820.3055072948
6	40	39	1834.2212209022
6	41	40	1848.1365923937
6	42	41	1862.041168184
6	43	42	1875.9392625811
6	44	43	1889.8395273285
6	45	44	1903.7156786723
6	46	45	1917.6053278847
6	47	46	1931.5064756889
6	48	47	1945.40675552
6	49	48	1959.3093540082
6	50	49	1973.2067019865
6	51	50	1987.1163533526
6	52	51	2001.0078694038
6	53	52	2014.887112611
6	54	53	2028.780188744
6	55	54	2042.6787562715
6	56	55	2056.5685021123
6	57	56	2070.4791610492
6	58	57	2084.3819646779
6	59	58	2098.1999430675
6	60	59	2110.2685595369
6	61	60	2117.904433962
6	62	61	2120.8508979995
6	63	62	2120.3800438754
6	64	63	2119.9095567977
6	65	64	2119.4387432877
6	66	65	2118.9686625395
6	67	66	2118.4981920971
6	68	67	2118.0279270643
6	69	68	2117.5575560974
6	70	69	2117.086876642
6	71	70	2116.6167424796
6	72	71	2116.1460023643
6	73	72	2115.6761556324
6	74	73	2114.2775980067
6	76	74	2112.3214895632
6	77	75	2109.4696821729
6	78	76	2104.9946950581
6	79	77	2100.5213406375
6	80	78	2094.7703259885
6	81	79	2087.7043662742
6	82	80	2081.5312672593
6	83	81	2077.578222001
6	84	82	2073.0740608145
6	85	83	2065.9943719516
6	86	84	2060.2159869326
6	87	85	2052.046890175
6	211	86	2042.5132728172
6	212	87	2032.3405361548
6	2080	88	2022.1744517498
6	2081	89	2011.994271717
6	5668	90	2001.8335648486
6	5669	91	1991.6660835035
6	6640	92	1979.2058478361
6	6641	93	1969.4512300594
6	6934	94	1959.75187755
6	6935	95	1950.0315758903
6	6936	96	1940.3098016204
6	6937	97	1930.6042630505
6	6938	98	1920.8829763839
6	6939	99	1911.1713639069
6	6940	100	1901.4513658127
6	6942	101	1891.7403822765
6	6943	102	1882.0419121087
6	6944	103	1872.3206400983
6	6945	104	1862.4021854568
6	6946	105	1852.4433380784
6	6947	106	1842.4748348929
6	6948	107	1832.5053056637
6	6949	108	1822.5258438149
6	6950	109	1812.5549224466
6	6951	110	1802.5865561394
6	6952	111	1792.6111894967
6	6953	112	1782.6376613379
6	6954	113	1772.6673867693
6	6955	114	1762.8617302896
6	6956	115	1753.272660818
6	6957	116	1743.6714032274
6	6958	117	1733.9560264014
6	6959	118	1724.2116249138
6	6960	119	1714.4722863473
6	6961	120	1704.7130623069
6	6962	121	1694.9724427108
6	6963	122	1685.2283328669
6	6964	123	1675.473577382
6	6966	124	1665.7033339143
6	6967	125	1655.9262031168
6	6968	126	1646.1798183583
6	6969	127	1636.4201613059
6	6970	128	1626.6716089118
6	6971	129	1616.918019562
6	6972	130	1607.1539134998
6	6974	131	1597.4100378668
6	6975	132	1587.6690008827
6	6976	133	1577.8983633611
6	6977	134	1568.1384692835
6	6978	135	1558.4033707855
6	6979	136	1548.6689305231
6	6980	137	1538.7514140122
6	6981	138	1528.8426136486
6	6982	139	1518.922585506
6	6983	140	1509.002943268
6	6984	141	1499.0874790903
6	6985	142	1489.6979334503
6	6986	143	1480.5734859416
6	6987	144	1471.4471489917
6	6988	145	1462.3200643677
6	6989	146	1453.1981657296
6	6990	147	1444.5031257374
6	6991	148	1436.454172777
6	6992	149	1428.4068423333
6	6993	150	1420.3627002174
6	6995	151	1412.3326902064
6	6996	152	1405.2804098902
6	6997	153	1399.3280709572
6	6998	154	1393.3712968277
6	6999	155	1387.4124413049
6	7000	156	1382.80927449
6	7001	157	1378.5157417897
6	7002	158	1374.2349432511
6	7003	159	1371.0352587784
6	7004	160	1368.9761059452
6	7006	161	1366.5868223105
6	7007	162	1364.2376013631
6	7008	163	1361.8447903711
6	7009	164	1359.4538885653
6	7010	165	1357.3764973357
6	7011	166	1355.5186905051
6	7012	167	1354.057630958
6	7013	168	1352.5953676347
6	7014	169	1351.1351668686
6	7015	170	1349.6732064513
6	7016	171	1348.2103728764
6	7017	172	1346.7486299528
6	7018	173	1345.2879254427
6	7019	174	1343.8273694487
6	7020	175	1342.3661478078
6	7021	176	1340.930432247
6	7022	177	1339.9767626505
6	7023	178	1339.0217706235
6	7024	179	1337.9201088157
6	7025	180	1336.7299657837
6	7027	181	1335.5402321685
6	7028	182	1334.3500257265
6	7029	183	1333.158926609
6	7030	184	1331.9692270719
6	7031	185	1330.7790021002
6	7032	186	1329.5891113766
6	7033	187	1328.3992804866
6	7034	188	1327.2097935872
6	7035	189	1326.0196710192
6	7036	190	1324.8303003209
6	7038	191	1323.6475268211
6	7039	192	1322.5383118922
6	7040	193	1321.4289611727
6	7041	194	1320.3185801273
6	7042	195	1319.2008189904
6	7043	196	1318.3107557837
6	7044	197	1317.5885945205
6	7045	198	1316.4792165319
6	7046	199	1314.9011614211
6	7047	200	1313.0204349589
7	6	5	2.9251100080967
7	7	6	3.8792980854842
7	8	7	4.6706868703743
7	9	8	5.5696151494603
7	10	9	6.3876720560796
7	11	10	7.1646061172723
7	12	11	8.0397677946331
7	13	12	8.7469808571177
7	14	13	9.6215323525364
7	15	14	10.378951539217
7	16	15	11.2582144549
7	17	16	11.970259031881
7	18	17	12.799767736608
7	19	18	13.618324538277
7	20	19	13.902624198345
7	21	20	13.96526558182
7	22	21	13.896226836345
7	23	22	13.940600164996
7	24	23	13.965727980207
7	25	24	12.007199608944
7	26	25	8.7853486124853
7	27	26	8.6181113693215
7	28	27	7.9572064978088
7	29	28	7.6539614328084
7	30	29	9.5931708310376
7	31	30	10.744236733806
7	32	31	11.214803376487
7	33	32	11.902334779118
7	34	33	12.437881787348
7	35	34	13.171057300111
7	36	35	13.891057595698
7	37	36	13.95894226572
7	38	37	13.878417719794
7	39	38	13.94367073565
7	40	39	13.979201178555
7	41	40	13.968183293466
7	42	41	13.930269672808
7	43	42	13.943722365173
7	44	43	13.891642489913
7	45	44	13.937602907333
7	46	45	13.967249685258
7	47	46	13.917060204607
7	48	47	13.921478904202
7	49	48	13.93045666487
7	50	49	13.955242448838
7	51	50	13.881372116629
7	52	51	13.931203606215
7	53	52	13.876584865651
7	54	53	13.891603522033
7	55	54	13.906610091229
7	56	55	13.895258919378
7	57	56	13.873348374083
7	58	57	13.965775204345
7	59	58	13.914509062488
7	60	59	13.919680483523
7	61	60	13.998220097395
7	62	61	13.915279737322
7	63	62	13.977014984447
7	64	63	13.962290166926
7	65	64	13.95767641993
7	66	65	13.976688963424
7	67	66	13.910827279845
7	68	67	13.97576241595
7	69	68	13.965382405855
7	70	69	13.899649818859
7	71	70	13.970959765862
7	72	71	13.973828151773
7	73	72	13.886379335972
7	74	73	13.902504514349
7	76	74	13.980118002137
7	77	75	13.87420287289
7	78	76	13.995654726175
7	79	77	13.894003012171
7	80	78	13.95994006657
7	81	79	13.965743884216
7	82	80	10.191941857808
7	83	81	6.4085126562125
7	84	82	8.571990981478
7	85	83	10.64900964762
7	86	84	10.175972761079
7	87	85	12.026058418078
7	211	86	13.940405284809
7	212	87	13.98088535046
7	2080	88	13.971547304806
7	2081	89	13.929310947137
7	5668	90	13.872048762662
7	5669	91	13.958026029519
7	6640	92	13.977838314979
7	6641	93	13.976673133541
7	6934	94	13.881156091942
7	6935	95	13.907533840337
7	6936	96	13.891130086093
7	6937	97	13.914248980691
7	6938	98	13.999408322
7	6939	99	13.966386230548
7	6940	100	13.939856876906
7	6942	101	13.969699892642
7	6943	102	13.876837039089
7	6944	103	13.969346223723
7	6945	104	13.879256845976
7	6946	105	13.907423649076
7	6947	106	13.966861185881
7	6948	107	13.904213053039
7	6949	108	13.998874236739
7	6950	109	13.932229767742
7	6951	110	13.87742863806
7	6952	111	13.954253033188
7	6953	112	13.899082797824
7	6954	113	13.947137953762
7	6955	114	13.964347427082
7	6956	115	13.912932598901
7	6957	116	13.916123883177
7	6958	117	13.897264625349
7	6959	118	13.87860071179
7	6960	119	13.877804838042
7	6961	120	13.915384554411
7	6962	121	13.983528908179
7	6963	122	13.914990010215
7	6964	123	13.88423643634
7	6966	124	13.946779496539
7	6967	125	13.984077928874
7	6968	126	13.87993002709
7	6969	127	13.9852237069
7	6970	128	13.882495504338
7	6971	129	13.90687674036
7	6972	130	13.906984370525
7	6974	131	13.886890979158
7	6975	132	13.886821658846
7	6976	133	13.889644138699
7	6977	134	13.970215468244
7	6978	135	13.949117795771
7	6979	136	13.944810946002
7	6980	137	13.94082551525
7	6981	138	13.943734684151
7	6982	139	13.917794565307
7	6983	140	13.970149239958
7	6984	141	13.978026006988
7	6985	142	13.972454453893
7	6986	143	13.965620384365
7	6987	144	13.884359905287
7	6988	145	13.907735725397
7	6989	146	13.874633909196
7	6990	147	13.897392846006
7	6991	148	13.970682404074
7	6992	149	13.904648199193
7	6993	150	13.962335886201
7	6995	151	13.989287874363
7	6996	152	13.908594718243
7	6997	153	13.964739117613
7	6998	154	13.960506783805
7	6999	155	13.993095841717
7	7000	156	13.918385191646
7	7001	157	13.976468068769
7	7002	158	13.886134368856
7	7003	159	13.981629088242
7	7004	160	13.991524174092
7	7006	161	13.969759739165
7	7007	162	13.953905106499
7	7008	163	13.886915355024
7	7009	164	13.910426406825
7	7010	165	13.905129421754
7	7011	166	13.934535751694
7	7012	167	13.915491338072
7	7013	168	13.949507806126
7	7014	169	13.889366336875
7	7015	170	13.973015392455
7	7016	171	13.92272822113
7	7017	172	13.950638764554
7	7018	173	13.893788072227
7	7019	174	13.915372804713
7	7020	175	13.930260067354
7	7021	176	13.93712417383
7	7022	177	13.972848471457
7	7023	178	13.943136460155
7	7024	179	13.96088866197
7	7025	180	13.933790415127
7	7027	181	13.938417657467
7	7028	182	13.966345550136
7	7029	183	13.942478051542
7	7030	184	13.882136830245
7	7031	185	13.921372741277
7	7032	186	13.876827887867
7	7033	187	13.906996891422
7	7034	188	13.876181688118
7	7035	189	13.90522429012
7	7036	190	13.929284210459
7	7038	191	13.901864337686
7	7039	192	13.933164454852
7	7040	193	13.883301878746
7	7041	194	13.932385708697
7	7042	195	13.935439733267
7	7043	196	13.962481542609
7	7044	197	13.941193053806
7	7045	198	13.934696035772
7	7046	199	13.916272261585
7	7047	200	13.912816513102
8	7	6	2415.7991324583
8	8	7	2414.2141160063
8	9	8	2410.7379365449
8	10	9	2406.0950837864
8	11	10	2401.7103032916
8	12	11	2396.7913930308
8	13	12	2391.3116572241
8	14	13	2385.3043636198
8	15	14	2378.7413543678
8	16	15	2371.6129292031
8	17	16	2363.9118358759
8	18	17	2355.6307029621
8	19	18	2346.8040905786
8	20	19	2338.3538198001
8	21	20	2334.0177961518
8	22	21	2339.5116970389
8	23	22	2349.4055838576
8	24	23	2359.0308678313
8	25	24	2371.1829063786
8	26	25	2383.085892559
8	27	26	2393.3896292279
8	28	27	2403.1563582139
8	29	28	2411.5731883917
8	30	29	2420.1737147091
8	31	30	2427.4506082824
8	32	31	2431.3367753988
8	33	32	2432.9946529092
8	34	33	2434.9118367706
8	35	34	2436.9109654813
8	36	35	2438.4928388505
8	37	36	2439.3493273053
8	38	37	2440.3606891377
8	39	38	2441.3715940797
8	40	39	2442.3819915279
8	41	40	2443.3929824909
8	42	41	2444.4030505309
8	43	42	2445.4129043845
8	44	43	2446.4235935214
8	45	44	2447.4343989242
8	46	45	2448.4456351186
8	47	46	2449.455972751
8	48	47	2450.466926472
8	49	48	2449.7574061613
8	50	49	2448.6430655087
8	51	50	2447.5310380034
8	52	51	2446.4177594299
8	53	52	2445.3034196418
8	54	53	2444.190735517
8	55	54	2443.0776858715
8	56	55	2441.9638391687
8	57	56	2440.8497868812
8	58	57	2439.8558283326
8	59	58	2438.914815478
8	60	59	2438.2425263009
8	61	60	2433.9564005337
8	62	61	2424.336520508
8	63	62	2411.4715893046
8	64	63	2397.6103332973
8	65	64	2383.6713332481
8	66	65	2369.7363078244
8	67	66	2355.7955913917
8	68	67	2341.8440483018
8	69	68	2327.9305489315
8	70	69	2314.0041897013
8	71	70	2300.0687863709
8	72	71	2286.1364134849
8	73	72	2272.2047867654
8	74	73	2258.3065367354
8	76	74	2244.417427438
8	77	75	2230.616233736
8	78	76	2216.7891446322
8	79	77	2203.550227518
8	80	78	2190.3386100569
8	81	79	2177.2311842371
8	82	80	2166.0719663451
8	83	81	2157.6449669271
8	84	82	2150.0624957996
8	85	83	2143.281211198
8	86	84	2136.9523568078
8	87	85	2130.2973453674
8	211	86	2122.771668235
8	212	87	2113.3248468457
8	2080	88	2105.032660878
8	2081	89	2095.6300155482
8	5668	90	2086.1008944471
8	5669	91	2076.5677249179
8	6640	92	2067.0445947691
8	6641	93	2057.5225623348
8	6934	94	2050.3882969855
8	6935	95	2040.5112222172
8	6936	96	2030.51734363
8	6937	97	2020.5180135506
8	6938	98	2010.5157774725
8	6939	99	2000.5236167758
8	6940	100	1990.5369547205
8	6942	101	1980.5483247146
8	6943	102	1970.5542557702
8	6944	103	1960.5646481628
8	6945	104	1950.5634613235
8	6946	105	1940.564855673
8	6947	106	1930.7597365845
8	6948	107	1921.0387673175
8	6949	108	1911.3169951752
8	6950	109	1901.5770357839
8	6951	110	1891.8347626528
8	6952	111	1882.0943210983
8	6953	112	1872.3760934008
8	6954	113	1862.6340562492
8	6955	114	1852.898389949
8	6956	115	1843.1644031958
8	6957	116	1833.3026269302
8	6958	117	1823.2044093792
8	6959	118	1813.0922496782
8	6960	119	1803.0903431808
8	6961	120	1793.134240907
8	6962	121	1783.1800411601
8	6963	122	1773.2261833104
8	6964	123	1763.2791893181
8	6966	124	1753.3178860594
8	6967	125	1743.3703757476
8	6968	126	1733.4193443672
8	6969	127	1723.4566856053
8	6970	128	1713.4887821631
8	6971	129	1703.5362952098
8	6972	130	1693.5904279996
8	6974	131	1683.6311480463
8	6975	132	1673.6800888967
8	6976	133	1663.7379174684
8	6977	134	1653.7850779822
8	6978	135	1643.8358738524
8	6979	136	1633.8839785066
8	6980	137	1623.9254621033
8	6981	138	1614.0967913306
8	6982	139	1604.2645721075
8	6983	140	1594.4471928312
8	6984	141	1584.6336194291
8	6985	142	1574.8152632598
8	6986	143	1564.9840750797
8	6987	144	1554.7729084895
8	6988	145	1544.2198070016
8	6989	146	1533.6590606059
8	6990	147	1523.1030591843
8	6991	148	1512.558906204
8	6992	149	1501.7996549256
8	6993	150	1490.3776550608
8	6995	151	1478.9670114035
8	6996	152	1467.5720109479
8	6997	153	1456.1851657443
8	6998	154	1444.3699334116
8	6999	155	1431.7289217833
8	7000	156	1419.1073758323
8	7001	157	1406.490605629
8	7002	158	1393.4032664859
8	7003	159	1380.1068615583
8	7004	160	1366.8096511789
8	7006	161	1353.3655200914
8	7007	162	1339.5607651332
8	7008	163	1325.936726078
8	7009	164	1312.2063351584
8	7010	165	1298.4761084813
8	7011	166	1284.7583828736
8	7012	167	1270.9787017694
8	7013	168	1257.2049108079
8	7014	169	1243.3307345825
8	7015	170	1229.4742149462
8	7016	171	1215.6140714739
8	7017	172	1201.7395836042
8	7018	173	1187.8719910065
8	7019	174	1174.0097632892
8	7020	175	1160.1467681268
8	7021	176	1146.2917414678
8	7022	177	1132.4266149275
8	7023	178	1118.5979563503
8	7024	179	1104.6992003714
8	7025	180	1090.8010281682
8	7027	181	1076.8940910344
8	7028	182	1063.017449275
8	7029	183	1049.1453022131
8	7030	184	1035.2815398433
8	7031	185	1021.4128189242
8	7032	186	1007.5320723703
8	7033	187	993.66116202471
8	7034	188	979.77754444769
8	7035	189	965.89121863036
8	7036	190	952.02114307031
8	7038	191	938.14851512783
8	7039	192	924.28219717811
8	7040	193	910.40754855005
8	7041	194	896.52035174239
8	7042	195	882.64059432363
8	7043	196	868.7584834412
8	7044	197	854.89409808896
8	7045	198	841.00701622036
8	7046	199	827.10992416029
8	7047	200	813.23064175341
9	7	6	1578.111977458
9	8	7	1578.693987227
9	9	8	1579.9704221832
9	10	9	1582.6340155555
9	11	10	1587.0751941251
9	12	11	1592.0573725644
9	13	12	1597.6075900178
9	14	13	1603.6921508424
9	15	14	1610.3395750588
9	16	15	1617.5596877011
9	17	16	1625.3598342966
9	18	17	1633.7474810854
9	19	18	1642.6876234282
9	20	19	1652.5018415796
9	21	20	1664.3228246691
9	22	21	1675.0502020763
9	23	22	1683.4346643602
9	24	23	1692.1149865342
9	25	24	1695.4955813792
9	26	25	1697.0924548004
9	27	26	1698.1505148849
9	28	27	1699.0740243318
9	29	28	1699.8698918317
9	30	29	1700.6831290284
9	31	30	1701.2625522986
9	32	31	1708.6193313329
9	33	32	1719.5290083392
9	34	33	1732.1450529862
9	35	34	1745.3003364094
9	36	35	1758.9708794476
9	37	36	1772.8959463174
9	38	37	1786.8041658727
9	39	38	1800.7061022827
9	40	39	1814.6010596529
9	41	40	1828.5041790232
9	42	41	1842.3946063817
9	43	42	1856.2820882536
9	44	43	1870.1810569176
9	45	44	1884.0816244697
9	46	45	1897.9881162541
9	47	46	1911.8822510401
9	48	47	1925.7848582575
9	49	48	1939.7055437686
9	50	49	1953.6139628794
9	51	50	1967.4935109047
9	52	51	1981.3886738876
9	53	52	1995.2970822081
9	54	53	2009.1848256988
9	55	54	2023.0771313608
9	56	55	2036.9793853378
9	57	56	2050.8842052743
9	58	57	2064.7674594168
9	59	58	2078.6706658229
9	60	59	2092.5692828512
9	61	60	2105.6038721902
9	62	61	2115.3169722473
9	63	62	2120.4749878403
9	64	63	2120.5755092511
9	65	64	2120.1047075819
9	66	65	2119.6340401601
9	67	66	2119.1631805189
9	68	67	2118.6919551976
9	69	68	2118.222014836
9	70	69	2117.7516401215
9	71	70	2117.2809599349
9	72	71	2116.8103821045
9	73	72	2116.3398294756
9	74	73	2115.8704041736
9	76	74	2115.0855566217
9	77	75	2113.1284406837
9	78	76	2111.1676525772
9	79	77	2106.8274422437
9	80	78	2102.3466767445
9	81	79	2097.6520129312
9	82	80	2091.0827575568
9	83	81	2086.1219160566
9	84	82	2081.6582350275
9	85	83	2077.6661998555
9	86	84	2073.0920152245
9	87	85	2065.9877830744
9	211	86	2057.9541143253
9	212	87	2052.6947376207
9	2080	88	2043.8437465411
9	2081	89	2033.807462953
9	5668	90	2023.6361804726
9	5669	91	2013.4605767429
9	6640	92	2003.2956889411
9	6641	93	1993.1319728279
9	6934	94	1980.6847846238
9	6935	95	1970.8621202661
9	6936	96	1961.1470816648
9	6937	97	1951.4267436741
9	6938	98	1941.7035807651
9	6939	99	1931.9902121229
9	6940	100	1922.2821887052
9	6942	101	1912.5722522438
9	6943	102	1902.8570285961
9	6944	103	1893.1461418103
9	6945	104	1883.4239988644
9	6946	105	1873.7043650905
9	6947	106	1863.8085276932
9	6948	107	1853.8470594333
9	6949	108	1843.8847684357
9	6950	109	1833.9038402326
9	6951	110	1823.9205410462
9	6952	111	1813.9391187504
9	6953	112	1803.9804598885
9	6954	113	1793.9974025199
9	6955	114	1784.0208736192
9	6956	115	1774.0460658185
9	6957	116	1764.1898437859
9	6958	117	1754.5991113121
9	6959	118	1744.9951373497
9	6960	119	1735.3118601711
9	6961	120	1725.5547552453
9	6962	121	1715.7995148189
9	6963	122	1706.0446094563
9	6964	123	1696.2964307591
9	6966	124	1686.5342288027
9	6967	125	1676.7855441067
9	6968	126	1667.0334087191
9	6969	127	1657.2698783521
9	6970	128	1647.5012081331
9	6971	129	1637.7476462666
9	6972	130	1628.0005718302
9	6974	131	1618.2403527386
9	6975	132	1608.4881901368
9	6976	133	1598.744737613
9	6977	134	1588.9908302594
9	6978	135	1579.2404856011
9	6979	136	1569.4875035165
9	6980	137	1559.7280327128
9	6981	138	1550.0040509123
9	6982	139	1540.0788800372
9	6983	140	1530.1686894028
9	6984	141	1520.2623406211
9	6985	142	1510.3511638585
9	6986	143	1500.4270337736
9	6987	144	1490.9379353654
9	6988	145	1481.8094458207
9	6989	146	1472.6743433895
9	6990	147	1463.5433453871
9	6991	148	1454.4225963494
9	6992	149	1445.5742551144
9	6993	150	1437.5249333642
9	6995	151	1429.4836145705
9	6996	152	1421.4533198681
9	6997	153	1413.4287723415
9	6998	154	1406.0948487809
9	6999	155	1400.1351212943
9	7000	156	1394.1845710902
9	7001	157	1388.236272458
9	7002	158	1383.3931945395
9	7003	159	1379.1033758242
9	7004	160	1374.8132972457
9	7006	161	1371.2067612549
9	7007	162	1369.2945201993
9	7008	163	1366.9041716559
9	7009	164	1364.5271714516
9	7010	165	1362.1836453406
9	7011	166	1359.7448726492
9	7012	167	1357.649672172
9	7013	168	1355.7110389816
9	7014	169	1354.2478814386
9	7015	170	1352.7865859438
9	7016	171	1351.3249082826
9	7017	172	1349.8617178742
9	7018	173	1348.399254635
9	7019	174	1346.9373571714
9	7020	175	1345.4753787732
9	7021	176	1344.0142407259
9	7022	177	1342.5520375548
9	7023	178	1341.0936802607
9	7024	179	1340.1008594548
9	7025	180	1339.1478419323
9	7027	181	1338.0754095102
9	7028	182	1336.8851104556
9	7029	183	1335.6951969424
9	7030	184	1334.506002645
9	7031	185	1333.3163830172
9	7032	186	1332.125731864
9	7033	187	1330.9359244332
9	7034	188	1329.7450270122
9	7035	189	1328.5538972858
9	7036	190	1327.3641614607
9	7038	191	1326.1742066992
9	7039	192	1324.9847931908
9	7040	193	1323.794665101
9	7041	194	1322.6824836442
9	7042	195	1321.572567937
9	7043	196	1320.4624640308
9	7044	197	1319.3472034242
9	7045	198	1318.4051696742
9	7046	199	1317.6832428137
9	7047	200	1316.6621084977
10	7	6	0.95418807738753
10	8	7	0.79138878489007
10	9	8	0.89892827908601
10	10	9	0.81805690661928
10	11	10	0.7769340611927
10	12	11	0.87516167736077
10	13	12	0.70721306248468
10	14	13	0.87455149541862
10	15	14	0.75741918668026
10	16	15	0.87926291568289
10	17	16	0.71204457698119
10	18	17	0.82950870472762
10	19	18	0.81855680166898
10	20	19	0.2842996600677
10	21	20	0.062641383474693
10	22	21	-0.069038745474536
10	23	22	0.044373328650835
10	24	23	0.025127815210727
10	25	24	-1.9585283712631
10	26	25	-3.2218509964584
10	27	26	-0.16723724316374
10	28	27	-0.66090487151273
10	29	28	-0.30324506500038
10	30	29	1.9392093982291
10	31	30	1.1510659027685
10	32	31	0.47056664268084
10	33	32	0.68753140263095
10	34	33	0.5355470082304
10	35	34	0.73317551276238
10	36	35	0.72000029558774
10	37	36	0.067884670021792
10	38	37	-0.0805245459266
10	39	38	0.065253015856724
10	40	39	0.035530442905147
10	41	40	-0.011017885089386
10	42	41	-0.03791362065822
10	43	42	0.013452692364808
10	44	43	-0.052079875259659
10	45	44	0.045960417420137
10	46	45	0.029646777925082
10	47	46	-0.05018948065117
10	48	47	0.0044186995946802
10	49	48	0.0089777606679124
10	50	49	0.024785783968401
10	51	50	-0.073870332208463
10	52	51	0.04983148958534
10	53	52	-0.054618740563747
10	54	53	0.015018656381871
10	55	54	0.01500656919554
10	56	55	-0.011351171850693
10	57	56	-0.021910545295105
10	58	57	0.092426830262411
10	59	58	-0.051266141857486
10	60	59	0.0051714210351932
10	61	60	0.078539613871834
10	62	61	-0.082940360072534
10	63	62	0.061735247124453
10	64	63	-0.014724817520474
10	65	64	-0.0046137469960374
10	66	65	0.019012543493881
10	67	66	-0.065861683578696
10	68	67	0.064935136104468
10	69	68	-0.010380010094959
10	70	69	-0.065732586996164
10	71	70	0.071309947003611
10	72	71	0.0028683859109879
10	73	72	-0.087448815801181
10	74	73	0.016125178376679
10	76	74	0.077613487788476
10	77	75	-0.10591512924759
10	78	76	0.12145185328554
10	79	77	-0.10165171400411
10	80	78	0.0659370543994
10	81	79	0.0058038176456456
10	82	80	-3.7738020264084
10	83	81	-3.7834292015952
10	84	82	2.1634783252655
10	85	83	2.0770186661417
10	86	84	-0.47303688654053
10	87	85	1.8500856569991
10	211	86	1.9143468667311
10	212	87	0.040480065650407
10	2080	88	-0.0093380456534202
10	2081	89	-0.042236357668882
10	5668	90	-0.057262184475547
10	5669	91	0.085977266856935
10	6640	92	0.019812285460066
10	6641	93	-0.0011651814379725
10	6934	94	-0.095517041599379
10	6935	95	0.026377748395317
10	6936	96	-0.016403754244093
10	6937	97	0.023118894598447
10	6938	98	0.085159341308753
10	6939	99	-0.033022091451565
10	6940	100	-0.026529353642836
10	6942	101	0.029843015735969
10	6943	102	-0.092862853552216
10	6944	103	0.092509184633382
10	6945	104	-0.090089377746917
10	6946	105	0.028166803100612
10	6947	106	0.05943753680447
10	6948	107	-0.062648132841568
10	6949	108	0.0946611836995
10	6950	109	-0.066644468996675
10	6951	110	-0.054801129682454
10	6952	111	0.07682439512806
10	6953	112	-0.055170235363766
10	6954	113	0.04805515593849
10	6955	114	0.017209473319818
10	6956	115	-0.051414828181732
10	6957	116	0.0031912842765447
10	6958	117	-0.018859257828444
10	6959	118	-0.018663913558704
10	6960	119	-0.00079587374813705
10	6961	120	0.037579716369509
10	6962	121	0.068144353767858
10	6963	122	-0.068538897964173
10	6964	123	-0.030753573875408
10	6966	124	0.062543060199824
10	6967	125	0.037298432334792
10	6968	126	-0.10414790178416
10	6969	127	0.10529367981013
10	6970	128	-0.10272820256185
10	6971	129	0.024381236021872
10	6972	130	0.00010763016529403
10	6974	131	-0.0200933913677
10	6975	132	-6.9320311304466e-005
10	6976	133	0.0028224798524761
10	6977	134	0.080571329544764
10	6978	135	-0.021097672472242
10	6979	136	-0.0043068497697814
10	6980	137	-0.0039854307519285
10	6981	138	0.0029091689013878
10	6982	139	-0.025940118844154
10	6983	140	0.052354674651287
10	6984	141	0.0078767670295203
10	6985	142	-0.0055715530947786
10	6986	143	-0.0068340695276863
10	6987	144	-0.081260479078628
10	6988	145	0.023375820110086
10	6989	146	-0.03310181620065
10	6990	147	0.022758936809842
10	6991	148	0.073289558067918
10	6992	149	-0.066034204880708
10	6993	150	0.057687687007711
10	6995	151	0.026951988162473
10	6996	152	-0.080693156120834
10	6997	153	0.056144399370533
10	6998	154	-0.0042323338077406
10	6999	155	0.032589057912119
10	7000	156	-0.074710650071502
10	7001	157	0.058082877122796
10	7002	158	-0.090333699912298
10	7003	159	0.095494719385171
10	7004	160	0.0098950858507294
10	7006	161	-0.021764434927608
10	7007	162	-0.015854632665869
10	7008	163	-0.066989751474466
10	7009	164	0.023511051801034
10	7010	165	-0.0052969850716185
10	7011	166	0.029406329940539
10	7012	167	-0.019044413622469
10	7013	168	0.034016468054615
10	7014	169	-0.06014146925183
10	7015	170	0.083649055580608
10	7016	171	-0.050287171325181
10	7017	172	0.027910543424078
10	7018	173	-0.056850692327135
10	7019	174	0.021584732485936
10	7020	175	0.014887262640986
10	7021	176	0.0068641064758417
10	7022	177	0.035724297626876
10	7023	178	-0.029712011301891
10	7024	179	0.017752201815602
10	7025	180	-0.027098246843089
10	7027	181	0.0046272423397742
10	7028	182	0.027927892669105
10	7029	183	-0.023867498594337
10	7030	184	-0.060341221296694
10	7031	185	0.039235911031719
10	7032	186	-0.044544853409752
10	7033	187	0.03016900355462
10	7034	188	-0.030815203303938
10	7035	189	0.029042602002155
10	7036	190	0.024059920338914
10	7038	191	-0.02741987277288
10	7039	192	0.031300117166246
10	7040	193	-0.049862576106097
10	7041	194	0.049083829950542
10	7042	195	0.0030540245701562
10	7043	196	0.027041809342336
10	7044	197	-0.021288488802966
10	7045	198	-0.0064970180345707
10	7046	199	-0.018423774186521
10	7047	200	-0.0034557484835389
11	7	6	2.1946111367229
11	8	7	2.2355419893881
11	9	8	2.6012497788704
11	10	9	2.701558695118
11	11	10	2.8311036244717
11	12	11	3.2415445454637
11	13	12	3.084597917937
11	14	13	3.6843254790652
11	15	14	3.6085179501558
11	16	15	4.1705584886582
11	17	16	3.9000213315147
11	18	17	4.480004822786
11	19	18	4.6867802458467
11	20	19	2.981452838788
11	21	20	2.2461176614322
11	22	21	1.7970363622563
11	23	22	2.1818497330003
11	24	23	2.1199110075531
11	25	24	0.973
11	26	25	0.973
11	27	26	1.2375219709162
11	28	27	0.973
11	29	28	0.973
11	30	29	6.1376944377888
11	31	30	4.7234047129675
11	32	31	3.0531353773163
11	33	32	3.8120915489081
11	34	33	3.4930723439724
11	35	34	4.283709642966
11	36	35	4.4380978791449
11	37	36	2.2630145133291
11	38	37	1.7571051623343
11	39	38	2.2523607232025
11	40	39	2.156417839971
11	41	40	1.9984986276771
11	42	41	1.9044316060153
11	43	42	2.0782950793396
11	44	43	1.853422593477
11	45	44	2.1868426699678
11	46	45	2.1352872044964
11	47	46	1.8620319838738
11	48	47	2.0456435707394
11	49	48	2.0618745979993
11	50	49	2.1176250124403
11	51	50	1.7796091633911
11	52	51	2.1991155489433
11	53	52	1.8435901605053
11	54	53	2.0780567125513
11	55	54	2.0795978676665
11	56	55	1.9901356675827
11	57	56	1.9526630555545
11	58	57	2.3464279069285
11	59	58	1.8581923896357
11	60	59	2.0479834286655
11	61	60	2.3036240814925
11	62	61	1.7520392986332
11	63	62	2.2444451284768
11	64	63	1.9854379704513
11	65	64	2.0189942127252
11	66	65	2.1005005124494
11	67	66	1.808931076276
11	68	67	2.255075993964
11	69	68	2.0003663989224
11	70	69	1.8084027866468
11	71	70	2.2759732700177
11	72	71	2.045825991771
11	73	72	1.7345870723922
11	74	73	2.0829128909201
11	76	74	2.2983061242258
11	77	75	1.6718606563469
11	78	76	2.4480534412518
11	79	77	1.6876440448648
11	80	78	2.2565804052488
11	81	79	2.0548730965411
11	82	80	0.973
11	83	81	0.973
11	84	82	6.0511200749704
11	85	83	7.0657503586589
11	86	84	0.973
11	87	85	7.2128763571932
11	211	86	8.4642612993077
11	212	87	2.1732819533113
11	2080	88	2.0044901777246
11	2081	89	1.8898312890892
11	5668	90	1.8343515908053
11	5669	91	2.3237672521349
11	6640	92	2.1033175102831
11	6641	93	2.0325326099908
11	6934	94	1.7071750463749
11	6935	95	2.1178082425008
11	6936	96	1.9728120782214
11	6937	97	2.1076069737438
11	6938	98	2.3261024406343
11	6939	99	1.9242556125462
11	6940	100	1.9435679459401
11	6942	101	2.1362160758637
11	6943	102	1.7157119985265
11	6944	103	2.3471500476867
11	6945	104	1.7251807375648
11	6946	105	2.1237926749337
11	6947	106	2.2355207818231
11	6948	107	1.819130781992
11	6949	108	2.3580933461049
11	6950	109	1.8081450460001
11	6951	110	1.8430547951696
11	6952	111	2.2925225232745
11	6953	112	1.8437345443204
11	6954	113	2.194962893353
11	6955	114	2.0931129844189
11	6956	115	1.857552691351
11	6957	116	2.0409755399191
11	6958	117	1.9651878871796
11	6959	118	1.9640281097405
11	6960	119	2.0237113844781
11	6961	120	2.1562249384016
11	6962	121	2.2668079921522
11	6963	122	1.8003110505696
11	6964	123	1.9241223651632
11	6966	124	2.2436184913474
11	6967	125	2.1629174701794
11	6968	126	1.6782078856186
11	6969	127	2.3922189707064
11	6970	128	1.683154111835
11	6971	129	2.1110457199006
11	6972	130	2.0297023028679
11	6974	131	1.9600494567306
11	6975	132	2.027057783202
11	6976	133	2.0370247921195
11	6977	134	2.3070657400054
11	6978	135	1.9627144284113
11	6979	136	2.0187252990256
11	6980	137	2.0194023435831
11	6981	138	2.0428654987218
11	6982	139	1.9434348775469
11	6983	140	2.2120576749611
11	6984	141	2.0631303919417
11	6985	142	2.0172641175411
11	6986	143	2.0123247703847
11	6987	144	1.7551312945486
11	6988	145	2.107768330669
11	6989	146	1.9153656353112
11	6990	147	2.104590993284
11	6991	148	2.2826053409193
11	6992	149	1.8078217226679
11	6993	150	2.2291049820195
11	6995	151	2.1286158974802
11	6996	152	1.7590244326314
11	6997	153	2.2241902490715
11	6998	154	2.0205637049715
11	6999	155	2.1480410059667
11	7000	156	1.7798988882653
[...]
291	7023	178	1610.9335748069
291	7024	179	1620.8529023034
291	7025	180	1630.7659432739
291	7027	181	1640.6789324759
291	7028	182	1651.0355891064
291	7029	183	1663.4344804771
291	7030	184	1675.0974192312
291	7031	185	1684.1257269168
291	7032	186	1693.4481103206
291	7033	187	1695.8922517281
291	7034	188	1697.5604947545
291	7035	189	1698.7073002523
291	7036	190	1699.5934216036
291	7038	191	1700.4837681251
291	7039	192	1701.0481125284
291	7040	193	1705.5373527724
291	7041	194	1715.6813546764
291	7042	195	1727.708863684
291	7043	196	1741.2744299676
291	7044	197	1755.0966500398
291	7045	198	1769.0067315809
291	7046	199	1782.9254953619
291	7047	200	1796.8441068977
292	7018	173	3.9722738104383
292	7019	174	6.1996034761961
292	7020	175	8.2444298870675
292	7021	176	10.135143899575
292	7022	177	12.274993759778
292	7023	178	13.93138282455
292	7024	179	13.919617550967
292	7025	180	13.94320610963
292	7027	181	13.913943922457
292	7028	182	13.971289897489
292	7029	183	13.917067608156
292	7030	184	13.925862173305
292	7031	185	13.887091138489
292	7032	186	13.926590106045
292	7033	187	13.543064178989
292	7034	188	13.3112127074
292	7035	189	10.803376084486
292	7036	190	9.1099022181762
292	7038	191	8.9192900888903
292	7039	192	7.2895235378123
292	7040	193	9.1679946854561
292	7041	194	11.095095349212
292	7042	195	12.974723871454
292	7043	196	13.929938044338
292	7044	197	13.889912477843
292	7045	198	13.974767842635
292	7046	199	13.948691007637
292	7047	200	13.95157183266
293	7019	174	2.2273296657577
293	7020	175	2.0448264108715
293	7021	176	1.8907140125078
293	7022	177	2.1398498602025
293	7023	178	1.6563890647725
293	7024	179	-0.011765273583586
293	7025	180	0.023588558663613
293	7027	181	-0.02926218717359
293	7028	182	0.057345975032076
293	7029	183	-0.05422228933312
293	7030	184	0.0087945651495822
293	7031	185	-0.038771034816746
293	7032	186	0.039498967556634
293	7033	187	-0.38352592705625
293	7034	188	-0.23185147158898
293	7035	189	-2.5078366229139
293	7036	190	-1.6934738663099
293	7038	191	-0.19061212928592
293	7039	192	-1.629766551078
293	7040	193	1.8784711476439
293	7041	194	1.9271006637556
293	7042	195	1.8796285222424
293	7043	196	0.95521417288438
293	7044	197	-0.040025566495023
293	7045	198	0.084855364791583
293	7046	199	-0.026076834998094
293	7047	200	0.0028808250231673
294	7019	174	4.7589442594242
294	7020	175	5.6223596284641
294	7021	176	6.31329511836
294	7022	177	8.2032653037553
294	7023	178	7.5930940212609
294	7024	179	1.9911606279594
294	7025	180	2.1123003650466
294	7027	181	1.931926778707
294	7028	182	2.2289949047333
294	7029	183	1.8485065549417
294	7030	184	2.0607811779503
294	7031	185	1.8975587097616
294	7032	186	2.1639103991205
294	7033	187	0.973
294	7034	188	1.2262369674293
294	7035	189	0.973
294	7036	190	0.973
294	7038	191	0.973
294	7039	192	0.973
294	7040	193	5.7739073070243
294	7041	194	6.9243093319034
294	7042	195	7.8151018588306
294	7043	196	5.238445085006
294	7044	197	1.8936197636961
294	7045	198	2.3220483356984
294	7046	199	1.9459348717794
294	7047	200	2.0435762828858
295	7020	175	2414.8806431039
295	7021	176	2411.9066742
295	7022	177	2407.1539202023
295	7023	178	2402.1444002982
295	7024	179	2395.7809756952
295	7025	180	2388.1124292741
295	7027	181	2379.0083157881
295	7028	182	2369.2107037498
295	7029	183	2359.4173500442
295	7030	184	2349.6134444847
295	7031	185	2340.2302233271
295	7032	186	2334.3568251578
295	7033	187	2338.6739190643
295	7034	188	2349.3326526748
295	7035	189	2359.68955933
295	7036	190	2373.0148376572
295	7038	191	2386.8393389302
295	7039	192	2399.3070140481
295	7040	193	2410.895760806
295	7041	194	2420.4721309878
295	7042	195	2427.5348064018
295	7043	196	2431.3192575764
295	7044	197	2432.9530346388
295	7045	198	2434.8797888705
295	7046	199	2436.9731008817
295	7047	200	2438.5334883293
296	7020	175	1578.4492419548
296	7021	176	1579.541267815
296	7022	177	1581.5615601372
296	7023	178	1586.6355136614
296	7024	179	1593.0807861248
296	7025	180	1600.8479671888
296	7027	181	1610.0691799186
296	7028	182	1619.9928111415
296	7029	183	1629.9121292597
296	7030	184	1639.8421349525
296	7031	185	1650.0997530175
296	7032	186	1662.2810604312
296	7033	187	1674.3736459799
296	7034	188	1683.3688931931
296	7035	189	1692.7090110257
296	7036	190	1695.7693972494
296	7038	191	1697.5311411954
296	7039	192	1698.7100431351
296	7040	193	1699.8058365295
296	7041	194	1700.7113462808
296	7042	195	1701.2763205441
296	7043	196	1708.5040551536
296	7044	197	1719.2551389579
296	7045	198	1731.9341615085
296	7046	199	1745.7092189379
296	7047	200	1759.556231942
297	7021	176	4.0923579340365
297	7022	177	6.035390733083
297	7023	178	8.0422403576464
297	7024	179	9.914429521878
297	7025	180	11.731929562404
297	7027	181	13.878144752674
297	7028	182	13.899547168352
297	7029	183	13.945013595116
297	7030	184	13.997083359992
297	7031	185	13.934198837739
297	7032	186	13.939332567204
297	7033	187	13.946908635194
297	7034	188	13.923234582038
297	7035	189	13.870160277721
297	7036	190	13.988225999794
297	7038	191	13.971645431006
297	7039	192	11.773039078552
297	7040	193	11.634172064452
297	7041	194	7.5949225846335
297	7042	195	7.9587775342213
297	7043	196	9.8968897076603
297	7044	197	11.760075899234
297	7045	198	13.775992536456
297	7046	199	13.895967951829
297	7047	200	13.89720689828
298	7022	177	1.9430327990465
298	7023	178	2.0068496245635
298	7024	179	1.8721891642315
298	7025	180	1.8175000405265
298	7027	181	2.1462151902698
298	7028	182	0.021402415677439
298	7029	183	0.045466426764616
298	7030	184	0.052069764875341
298	7031	185	-0.062884522252716
298	7032	186	0.0051337294653049
298	7033	187	0.0075760679901578
298	7034	188	-0.023674053156283
298	7035	189	-0.053074304317125
298	7036	190	0.1180657220725
298	7038	191	-0.016580568787175
298	7039	192	-2.1986063524543
298	7040	193	-0.13886701410026
298	7041	194	-4.0392494798182
298	7042	195	0.36385494958775
298	7043	196	1.938112173439
298	7044	197	1.8631861915742
298	7045	198	2.0159166372218
298	7046	199	0.11997541537279
298	7047	200	0.0012389464513394
299	7022	177	4.2476541423214
299	7023	178	5.4356444878858
299	7024	179	6.1516664159848
299	7025	180	6.9639086969346
299	7027	181	9.2047096700708
299	7028	182	2.1002780009694
299	7029	183	2.1860212390007
299	7030	184	2.2141953389965
299	7031	185	1.8209407823123
299	7032	186	2.0498860719978
299	7033	187	2.0588783009653
299	7034	188	1.9515592269203
299	7035	189	1.8481847148489
299	7036	190	2.4356593880825
299	7038	191	1.9801132173669
299	7039	192	0.973
299	7040	193	1.4273441107041
299	7041	194	0.973
299	7042	195	2.2383996077026
299	7043	196	6.2996657022626
299	7044	197	7.1081539701582
299	7045	198	8.7089392315074
299	7046	199	2.4300091946389
299	7047	200	2.0324957206621
300	7023	178	2414.881753972
300	7024	179	2411.8968850558
300	7025	180	2407.2201738071
300	7027	181	2402.22371854
300	7028	182	2395.8563422911
300	7029	183	2387.9374959092
300	7030	184	2378.7765932584
300	7031	185	2369.356078836
300	7032	186	2359.941741796
300	7033	187	2350.5296306235
300	7034	188	2341.356078906
300	7035	189	2334.7454432386
300	7036	190	2336.4012351201
300	7038	191	2346.7342112404
300	7039	192	2356.6904474503
300	7040	193	2368.458274228
300	7041	194	2381.7524832147
300	7042	195	2395.0688976209
300	7043	196	2408.3643544806
300	7044	197	2418.869060089
300	7045	198	2425.9835077254
300	7046	199	2431.042477409
300	7047	200	2432.6324758029
301	7023	178	1578.4488340495
301	7024	179	1579.5448623383
301	7025	180	1581.4944543624
301	7027	181	1586.5551752094
301	7028	182	1593.0044501461
301	7029	183	1601.0251505878
301	7030	184	1610.3038829174
301	7031	185	1619.8455662066
301	7032	186	1629.3809926584
301	7033	187	1638.914164613
301	7034	188	1648.6584826456
301	7035	189	1659.9406515416
301	7036	190	1672.5144070527
301	7038	191	1681.0255536232
301	7039	192	1690.0043368135
301	7040	193	1695.0883349227
301	7041	194	1696.9337493312
301	7042	195	1698.3093009256
301	7043	196	1699.5664751576
301	7044	197	1700.5597652216
301	7045	198	1701.0919848578
301	7046	199	1706.6827009171
301	7047	200	1717.1456988221
302	7024	179	4.0258063164378
302	7025	180	6.081140843134
302	7027	181	7.9660650061864
302	7028	182	10.034364651283
302	7029	183	12.169858404417
302	7030	184	13.355035140437
302	7031	185	13.447971620587
302	7032	186	13.362552482212
302	7033	187	13.417584241672
302	7034	188	13.425139142989
302	7035	189	13.369794232756
302	7036	190	13.377135727717
302	7038	191	13.368140495915
302	7039	192	13.363810937257
302	7040	193	13.400917528266
302	7041	194	13.418640229422
302	7042	195	13.409783941013
302	7043	196	12.949352238326
302	7044	197	8.5461248318721
302	7045	198	7.5961248318721
302	7046	199	9.5905387980151
302	7047	200	11.454544003393
303	7025	180	2.0553345266962
303	7027	181	1.8849241630523
303	7028	182	2.068299645097
303	7029	183	2.1354937531333
303	7030	184	1.1851767360199
303	7031	185	0.092936480150092
303	7032	186	-0.085419138374272
303	7033	187	0.055031759459526
303	7034	188	0.0075549013167606
303	7035	189	-0.055344910232815
303	7036	190	0.0073414949607109
303	7038	191	-0.0089952318021105
303	7039	192	-0.0043295586574814
303	7040	193	0.037106591009069
303	7041	194	0.017722701155581
303	7042	195	-0.008856288408861
303	7043	196	-0.46043170268712
303	7044	197	-4.4032274064536
303	7045	198	-0.95
303	7046	199	1.994413966143
303	7047	200	1.8640052053775
304	7025	180	4.4363342805795
304	7027	181	5.1596998636066
304	7028	182	6.6891238338463
304	7029	183	8.1268459723337
304	7030	184	5.7888565637041
304	7031	185	2.2846026177247
304	7032	186	1.6999427689472
304	7033	187	2.1583664215448
304	7034	188	2.0055988137728
304	7035	189	1.7974043681668
304	7036	190	2.000118543645
304	7038	191	1.9465905082174
304	7039	192	1.961203311417
304	7040	193	2.0986193461902
304	7041	194	2.0378305823066
304	7042	195	1.9510270201618
304	7043	196	0.973
304	7044	197	0.973
304	7045	198	0.973
304	7046	199	6.2638656924384
304	7047	200	6.9470749311984
305	7027	181	2414.8690385162
305	7028	182	2411.852863536
305	7029	183	2407.1367309121
305	7030	184	2402.0570334233
305	7031	185	2395.6422996466
305	7032	186	2387.9544659586
305	7033	187	2378.9379435009
305	7034	188	2369.1650498892
305	7035	189	2359.3782511776
305	7036	190	2349.5890088351
305	7038	191	2340.2071503706
305	7039	192	2334.3508557869
305	7040	193	2338.6961813336
305	7041	194	2349.3315299707
305	7042	195	2359.6795461598
305	7043	196	2373.0038300031
305	7044	197	2386.8015235284
305	7045	198	2399.3851606975
305	7046	199	2411.3453708122
305	7047	200	2420.7582537003
306	7027	181	1578.4535030993
306	7028	182	1579.5610268107
306	7029	183	1581.5789705198
306	7030	184	1586.7240042696
306	7031	185	1593.221245857
306	7032	186	1601.0079622651
306	7033	187	1610.1404573508
306	7034	188	1620.0390522126
306	7035	189	1629.9517310252
306	7036	190	1639.8668848993
306	7038	191	1650.1292899931
306	7039	192	1662.3170102993
306	7040	193	1674.3916241014
306	7041	194	1683.3678807104
306	7042	195	1692.6999808978
306	7043	196	1695.7677519526
306	7044	197	1697.527565496
306	7045	198	1698.7174324226
306	7046	199	1699.848350158
306	7047	200	1700.7384010935
307	7028	182	4.1328124305152
307	7029	183	6.0567583826778
307	7030	184	8.1157148019073
307	7031	185	9.9270229982573
307	7032	186	11.769232804832
307	7033	187	13.689850508912
307	7034	188	13.87241238445
307	7035	189	13.894989610508
307	7036	190	13.917431897172
307	7038	191	13.96314482016
307	7039	192	13.909655400042
307	7040	193	13.982179618189
307	7041	194	13.989307528727
307	7042	195	13.957950197596
307	7043	196	13.921270539402
307	7044	197	13.898659826089
307	7045	198	12.045102131875
307	7046	199	11.922773190395
307	7047	200	7.440902467071
308	7029	183	1.9239459521626
308	7030	184	2.0589564192295
308	7031	185	1.81130819635
308	7032	186	1.842209806575
308	7033	187	1.9206177040795
308	7034	188	0.18256187553864
308	7035	189	0.022577226057184
308	7036	190	0.022442286664155
308	7038	191	0.045712922988459
308	7039	192	-0.053489420118277
308	7040	193	0.072524218147155
308	7041	194	0.0071279105381112
308	7042	195	-0.031357331131584
308	7043	196	-0.036679658193608
308	7044	197	-0.022610713313334
308	7045	198	-1.853557694214
308	7046	199	-0.12232894147962
308	7047	200	-4.4818707233241
309	7029	183	4.2310465713707
309	7030	184	5.5779689465692
309	7031	185	6.0126471801601
309	7032	186	7.0535615367715
309	7033	187	8.3440151462589
309	7034	188	2.6361756272054
309	7035	189	2.1037247741504
309	7036	190	2.1056796600813
309	7038	191	2.1889024653493
309	7039	192	1.850304939201
309	7040	193	2.2814064830797
309	7041	194	2.0617826857148
309	7042	195	1.9290600637947
309	7043	196	1.9077360388241
309	7044	197	1.9527577462026
309	7045	198	0.973
309	7046	199	1.4902245783815
309	7047	200	0.973
310	7030	184	2414.8708232483
310	7031	185	2411.9163491535
310	7032	186	2407.2801298285
310	7033	187	2402.4015383349
310	7034	188	2396.230801893
310	7035	189	2388.8590428631
310	7036	190	2380.2309897839
310	7038	191	2370.5467052454
310	7039	192	2360.7664887545
310	7040	193	2350.9816268942
310	7041	194	2341.4311858785
310	7042	195	2334.6804645724
310	7043	196	2337.1344227764
310	7044	197	2347.8448234481
310	7045	198	2358.2063730884
310	7046	199	2371.0059321678
310	7047	200	2384.8168809116
311	7030	184	1578.4528477546
311	7031	185	1579.5377152227
311	7032	186	1581.4337271731
311	7033	187	1586.3750682548
311	7034	188	1592.6251741564
311	7035	189	1600.0917504802
311	7036	190	1608.8307796028
311	7038	191	1618.6396256806
311	7039	192	1628.5456376113
311	7040	193	1638.45635466
311	7041	194	1648.5623340318
311	7042	195	1660.3319782848
311	7043	196	1673.130410146
311	7044	197	1682.0271315305
311	7045	198	1691.3714365233
311	7046	199	1695.469129324
311	7047	200	1697.2984810434
312	7031	185	4.049282353592
312	7032	186	5.9011464027333
312	7033	187	7.7773110677296
312	7034	188	9.5721033463435
312	7035	189	11.172470057199
312	7036	190	13.118449632935
312	7038	191	13.879023789826
312	7039	192	13.901773252091
312	7040	193	13.981422309787
312	7041	194	13.940855686103
312	7042	195	13.930178748542
312	7043	196	13.969652454418
312	7044	197	13.913011854526
312	7045	198	13.962017400665
312	7046	199	13.916244991343
312	7047	200	13.885587302716
313	7032	186	1.8518640491413
313	7033	187	1.8761646649963
313	7034	188	1.7947922786139
313	7035	189	1.6003667108552
313	7036	190	1.945979575736
313	7038	191	0.76057415689169
313	7039	192	0.022749462265056
313	7040	193	0.079649057695642
313	7041	194	-0.040566623683553
313	7042	195	-0.010676937561948
313	7043	196	0.039473705876153
313	7044	197	-0.056640599891542
313	7045	198	0.049005546139087
313	7046	199	-0.045772409322671
313	7047	200	-0.030657688626089
314	7032	186	4.0473321762424
314	7033	187	5.0451900295208
314	7034	188	5.793143608116
314	7035	189	6.0868827767024
314	7036	190	8.1036934764828
314	7038	191	4.5704995569336
314	7039	192	2.1050291246252
314	7040	193	2.3053229939789
314	7041	194	1.8965018703812
314	7042	195	1.9958614200687
314	7043	196	2.1686343926154
314	7044	197	1.8400375843773
314	7045	198	2.1998539154082
314	7046	199	1.8767728030873
314	7047	200	1.9245705677681
315	7033	187	2414.8414386624
315	7034	188	2411.7630510482
315	7035	189	2407.1308902084
315	7036	190	2402.2431544972
315	7038	191	2395.9259209876
315	7039	192	2388.2236592349
315	7040	193	2379.1825901165
315	7041	194	2369.3975119094
315	7042	195	2359.5972683065
315	7043	196	2349.8054139533
315	7044	197	2340.3939942257
315	7045	198	2334.3996201458
315	7046	199	2338.4345995749
315	7047	200	2349.1018223329
316	7033	187	1578.4636376211
316	7034	188	1579.5940054869
316	7035	189	1581.5848863479
316	7036	190	1586.535489263
316	7038	191	1592.9339765115
316	7039	192	1600.7353065619
316	7040	193	1609.892664033
316	7041	194	1619.8036002116
316	7042	195	1629.7298968462
316	7043	196	1639.6476963274
316	7044	197	1649.8901007781
316	7045	198	1662.0233324068
316	7046	199	1674.1803811006
316	7047	200	1683.1607246092
317	7034	188	4.0978790214514
317	7035	189	5.9355173065928
317	7036	190	7.7744880242129
317	7038	191	9.9197366151931
317	7039	192	11.866089860992
317	7040	193	13.746926686288
317	7041	194	13.94367344975
317	7042	195	13.991886411908
317	7043	196	13.907275799874
317	7044	197	13.879081565868
317	7045	198	13.922903888123
317	7046	199	13.962957429166
317	7047	200	13.908555558252
318	7035	189	1.8376382851414
318	7036	190	1.8389707176201
318	7038	191	2.1452485909802
318	7039	192	1.946353245799
318	7040	193	1.8808368252963
318	7041	194	0.19674676346173
318	7042	195	0.048212962157558
318	7043	196	-0.084610612033865
318	7044	197	-0.028194234005642
318	7045	198	0.043822322255
318	7046	199	0.040053541043308
318	7047	200	-0.054401870914734
319	7035	189	4.0443142001804
319	7036	190	4.9740415855747
319	7038	191	6.8072529279888
319	7039	192	7.4028064566963
319	7040	193	8.2443697050811
319	7041	194	2.6942359594816
319	7042	195	2.2005920422904
319	7043	196	1.7457857994927
319	7044	197	1.932197237682
319	7045	198	2.1780060719668
319	7046	199	2.1698370040515
319	7047	200	1.8471485917056
320	7036	190	2414.8628236385
320	7038	191	2411.915103071
320	7039	192	2407.2824945372
320	7040	193	2402.3938888639
320	7041	194	2396.1964282036
320	7042	195	2388.7065952766
320	7043	196	2379.8522952399
320	7044	197	2370.2637354544
320	7045	198	2360.6714100696
320	7046	199	2351.0915840713
320	7047	200	2341.7015441087
321	7036	190	1578.4557851693
321	7038	191	1579.5381727777
321	7039	192	1581.431332049
321	7040	193	1586.3828161154
321	7041	194	1592.6599899689
321	7042	195	1600.2461588839
321	7043	196	1609.2143450044
321	7044	197	1618.9262350956
321	7045	198	1628.64193922
321	7046	199	1638.3449831884
321	7047	200	1648.2162334174
322	7038	191	3.9972925438598
322	7039	192	5.8966736217827
322	7040	193	7.7275329405634
322	7041	194	9.6043117894401
322	7042	195	11.546353439661
322	7043	196	13.463868954848
322	7044	197	13.705775578344
322	7045	198	13.680965268803
322	7046	199	13.698193690426
322	7047	200	13.695389772989
323	7039	192	1.8993810779229
323	7040	193	1.8308593187807
323	7041	194	1.8767788488767
323	7042	195	1.9420416502212
323	7043	196	1.9175155151868
323	7044	197	0.24190662349548
323	7045	198	-0.024810309540481
323	7046	199	0.017228421622422
323	7047	200	-0.0028039174363936
324	7039	192	4.1126034478839
324	7040	193	4.9350784140925
324	7041	194	5.9992188810962
324	7042	195	7.2132619193104
324	7043	196	8.2069034980111
324	7044	197	2.8080456840841
324	7045	198	1.9247173585566
324	7046	199	2.0651212094278
324	7047	200	1.9987100101606
325	7040	193	2414.847834392
325	7041	194	2411.9246061997
325	7042	195	2407.397652275
325	7043	196	2402.571433822
325	7044	197	2396.4283764329
325	7045	198	2388.9472558707
325	7046	199	2380.1469015452
325	7047	200	2371.0420518288
326	7040	193	1578.4612891432
326	7041	194	1579.5346832788
326	7042	195	1581.314693125
326	7043	196	1586.2029875321
326	7044	197	1592.4250583667
326	7045	198	1600.0024028569
326	7046	199	1608.9159494042
326	7047	200	1618.1379078338
327	7041	194	3.8846735310209
327	7042	195	5.7975266957916
327	7043	196	7.7500678545311
327	7044	197	9.5277826664019
327	7045	198	11.569822954385
327	7046	199	13.002156607267
327	7047	200	12.975081440821
328	7042	195	1.9128531647706
328	7043	196	1.9525411587395
328	7044	197	1.7777148118708
328	7045	198	2.0420402879827
328	7046	199	1.4323336528829
328	7047	200	-0.027075166446158
329	7042	195	4.0803198337419
329	7043	196	5.1737560070343
329	7044	197	5.7315014699296
329	7045	198	7.5050764091693
329	7046	199	6.4285272368516
329	7047	200	1.8530455757814
330	7043	196	2414.8540023906
330	7044	197	2411.8378782682
330	7045	198	2407.0303188188
330	7046	199	2401.9723767911
330	7047	200	2395.4943425542
331	7043	196	1578.4590242859
331	7044	197	1579.5665293224
331	7045	198	1581.6867513107
331	7046	199	1586.8097497756
331	7047	200	1593.3711060081
332	7044	197	4.1271274739058
332	7045	198	6.1859719680642
332	7046	199	8.1266228271971
332	7047	200	10.038615297365
333	7045	198	2.0588444941584
333	7046	199	1.9406508591329
333	7047	200	1.911992470168
334	7045	198	4.499643649761
334	7046	199	5.3524038382103
334	7047	200	6.3134113942728
335	7046	199	2414.8909720591
335	7047	200	2412.0199548829
336	7046	199	1578.4454492163
336	7047	200	1579.4996717395
337	7047	200	3.956608856622

